  85
 
 C         -3.2200165675       -0.7609371352       -1.4136179118
 C         -3.9159050892       -1.4239993516       -0.3766204818
 C         -4.9114497143       -0.5509382939        0.1073407945
 C         -4.8221947832        0.6566579879       -0.6190512592
 C         -3.7852054328        0.5198107519       -1.5669502147
 H         -2.4453244663       -1.1771522093       -2.0285859469
 H         -3.7435550769       -2.4270017672       -0.0398541055
 H         -5.6163677591       -0.7674779366        0.8874170887
 H         -5.4556900259        1.5152055440       -0.4962523929
 H         -3.5165737903        1.2380145329       -2.3186151044
 Fe        -3.0567423549        0.2780657815        0.3756414418
 C         -2.4423183100        1.9947920072        1.3078548961
 C         -1.3451850507        1.3044301970        0.7326321329
 C         -1.2957276747        0.0098271537        1.3442524766
 C         -2.3800772171       -0.0866226176        2.2613617565
 C         -3.0723714981        1.1377235231        2.2366622816
 H         -2.7681197074        2.9936468301        1.0911743183
 H         -2.6176741261       -0.9367208068        2.8697967059
 H         -3.9376648115        1.3802543620        2.8217082153
 C         -0.5472973810        1.7052393234       -0.4710838522
 H         -0.6232324647        0.8578496669       -1.1688088631
 P          0.0364822566       -1.1299549914        1.0346714402
 C         -1.2617716002        2.8888151208       -1.1266555932
 H         -0.9290550672        3.0658056164       -2.1422599206
 H         -2.3194561388        2.6348874701       -1.1691571407
 H         -1.1620965230        3.8036364961       -0.5533368937
 P          1.3286405452        1.7078192975       -0.1440257925
 Rh         2.0714514617       -0.4809549833        0.2919409648
 C          2.0392401749        2.5962594680       -1.6788871679
 C          1.5819387311        2.7408196021        1.4358482994
 C          0.6276738639        3.9241352090        1.5619244723
 H         -0.4029070654        3.5903651043        1.6261072000
 H          0.8562918181        4.4662084400        2.4786990365
 H          0.7364508735        4.6179773449        0.7341616383
 C          3.0237395269        3.2395921004        1.5271215637
 H          3.1896428268        3.6784675145        2.5100373708
 H          3.7261180996        2.4169775448        1.4100346451
 H          3.2332645602        4.0087249174        0.7899601518
 C          1.3560871259        1.7797044934        2.6095974367
 H          1.5958100190        2.2811341951        3.5457103890
 H          0.3216557290        1.4497230451        2.6636136960
 H          2.0071224162        0.9011892949        2.5181797016
 C          1.5001304614        1.7871345812       -2.8668535692
 H          0.4651532607        2.0171492826       -3.0955664347
 H          2.0888635965        2.0000625402       -3.7573515238
 H          1.5755595022        0.7170458433       -2.6553954303
 C          3.5680439703        2.4949473932       -1.7339729673
 H          4.0466144202        2.9227716622       -0.8604206412
 H          3.8965822883        1.4705994166       -1.8522248958
 H          3.9185569320        3.0526136838       -2.6017697527
 C          1.7025716153        4.0830453541       -1.8028028885
 H          1.9556390886        4.4141195427       -2.8093385225
 H          0.6593946483        4.3097057423       -1.6345808790
 H          2.2987170266        4.6702312845       -1.1088509329
 C         -0.4723676998       -2.1924132273       -0.3268299788
 C         -1.2136658127       -3.3209753716       -0.5313583252
 O          0.1421819166       -1.8236957459       -1.4826521928
 C         -1.0571739104       -3.6475745516       -1.8977724985
 H         -1.7862373690       -3.8523406132        0.1997365341
 C         -0.2256628147       -2.7049028816       -2.4222894683
 H         -1.5036788532       -4.4720571051       -2.4137738639
 H          0.1574336218       -2.5668141486       -3.4145137952
 C         -0.0799796213       -2.2521764382        2.4343842079
 C         -0.2147505978       -2.0469534470        3.7831068727
 O          0.1631799880       -3.5629518194        2.1920446700
 C         -0.0782965911       -3.3149486882        4.3892008201
 H         -0.3959225301       -1.1115362099        4.2721113619
 C          0.1503137678       -4.1937321215        3.3738178629
 H         -0.1414626654       -3.5394507528        5.4334886800
 H          0.3054415577       -5.2545646158        3.3678533463
 C          5.1015939052       -2.4524672265        0.2335550023
 C          3.8519091442       -2.4212437407       -0.6626618553
 C          4.5837551223       -1.3338987198        1.1535099959
 H          6.0161313280       -2.1842603669       -0.2944051945
 H          5.2365154670       -3.4032306491        0.7479719086
 C          2.7526620761       -2.5509193382        0.3863025167
 C          3.7847316520       -0.9335299632       -0.9937566132
 H          3.8088262836       -3.1091050750       -1.5018842959
 C          3.2045447062       -1.8823209775        1.5041502612
 C          4.2385985742       -0.2602424517        0.1207906916
 H          5.2120081578       -1.0259973888        1.9841483333
 H          1.9902757127       -3.3165288959        0.3530646043
 H          3.7182892337       -0.5816342599       -2.0136973240
 H          2.8487127076       -1.9906776908        2.5207980080
 H          4.6511356903        0.7353284718        0.1649257122
