  91
 
 C         -3.3683627455       -0.8629197731       -1.4312022295
 C         -4.2508142201       -1.2714305413       -0.4061204733
 C         -5.0037828663       -0.1484333273       -0.0076142929
 C         -4.5782766781        0.9564515345       -0.7770793206
 C         -3.5737167726        0.5086658386       -1.6618807421
 H         -2.7007293646       -1.4891307160       -1.9885172957
 H         -4.3702078551       -2.2686768209       -0.0306590526
 H         -5.7740943704       -0.1365651043        0.7395106779
 H         -4.9807262422        1.9509091066       -0.7239636065
 H         -3.0934966478        1.0879903868       -2.4273263523
 Fe        -3.0217113859        0.2140497806        0.3280887708
 C         -2.3984978365        1.8285377795        1.3926124086
 C         -1.3018444976        1.1970367666        0.7509194810
 C         -1.2274566567       -0.1384586934        1.2590212177
 C         -2.3023650295       -0.3210985364        2.1731865945
 C         -3.0098718725        0.8917300837        2.2546288114
 H         -2.7336233082        2.8394682206        1.2626251133
 H         -2.5137575165       -1.2128590423        2.7318273616
 H         -3.8699565936        1.0763231151        2.8672679786
 C         -0.5373800481        1.6910824061       -0.4402730372
 H         -0.6043150499        0.8763913866       -1.1782855857
 P          0.1181270278       -1.2439800705        0.8722055474
 C         -1.2879021999        2.8911870977       -1.0211446903
 H         -0.9978280424        3.1014151846       -2.0440515427
 H         -2.3451154731        2.6353671424       -1.0292033498
 H         -1.1678320843        3.7877917727       -0.4244225695
 P          1.3395517315        1.7367550136       -0.1421640295
 Rh         2.1545657749       -0.4354723281        0.2583381573
 C          2.0095744331        2.6862114150       -1.6590276705
 C          1.5853247067        2.7443289789        1.4560943802
 C          0.5998697526        3.8961029785        1.6287293409
 H         -0.4193579885        3.5309540243        1.7017129825
 H          0.8290371053        4.4197370698        2.5562110285
 H          0.6743402441        4.6152432003        0.8188456776
 C          3.0112327451        3.2854309297        1.5532734432
 H          3.1693812391        3.6995566950        2.5482730928
 H          3.1903952722        4.0836337136        0.8392203177
 H          3.7405695929        2.4922730155        1.4070365110
 C          1.3900911601        1.7418491838        2.5993433759
 H          1.6406212663        2.2083656258        3.5506497761
 H          0.3559178734        1.4102196044        2.6496954055
 H          2.0447652871        0.8697464160        2.4636840755
 C          1.4823230841        1.8964123820       -2.8640238387
 H          0.4281191790        2.0719444992       -3.0500187438
 H          2.0280234741        2.1801176658       -3.7619702852
 H          1.6290086374        0.8252848728       -2.7020150356
 C          3.5398729540        2.6287513428       -1.7241212124
 H          4.0103237966        3.0868098274       -0.8616290903
 H          3.8988425448        1.6130942312       -1.8240574255
 H          3.8690799369        3.1801344533       -2.6040545893
 C          1.6330518068        4.1656106211       -1.7458357901
 H          1.9135037657        4.5360479924       -2.7313213793
 H          0.5778136349        4.3565509265       -1.6123793987
 H          2.1851718831        4.7473157847       -1.0121124033
 C         -0.5713501225       -2.3203244991       -0.4183320984
 C         -1.6831279340       -3.1125354263       -0.1558121596
 C          0.0371859391       -2.3631135457       -1.6660469448
 C         -2.1555201085       -3.9733878124       -1.1288325550
 H         -2.1633091450       -3.0455136647        0.8086643213
 C         -0.4530414668       -3.2080369585       -2.6463503876
 H          0.9023473879       -1.7293968105       -1.8542354597
 C         -1.5405966319       -4.0223314893       -2.3716571161
 H         -3.0059131611       -4.6056083024       -0.9252559990
 H          0.0141099563       -3.2404952346       -3.6189920969
 H         -1.9136694971       -4.6937780299       -3.1293709602
 C          0.1494359532       -2.3340856699        2.3357565301
 C          0.2479876599       -3.7181866854        2.2298182304
 C          0.1748543711       -1.7487950971        3.6000773817
 C          0.3400523395       -4.5008609959        3.3671735920
 H          0.2346259007       -4.1919699453        1.2584783619
 C          0.2668811947       -2.5334820098        4.7344696052
 H          0.1134970887       -0.6741757139        3.6938783691
 C          0.3481023100       -3.9121759765        4.6206410283
 H          0.4055091645       -5.5741287932        3.2729144001
 H          0.2761852580       -2.0692571300        5.7089143918
 H          0.4183351454       -4.5251493364        5.5056637755
 C          5.2706317417       -2.2753411620        0.2427755078
 C          4.0523893430       -2.2722217362       -0.6960573988
 C          4.6743310167       -1.2038157162        1.1712804342
 H          6.1908552851       -1.9559588149       -0.2454751446
 H          5.4272854334       -3.2328508103        0.7379455199
 C          2.9224097725       -2.4728099047        0.3082890627
 C          3.9341083103       -0.7811754320       -0.9913231025
 H          2.1997019633       -3.2711938208        0.2274769104
 C          3.3093053983       -1.8192134857        1.4598649890
 C          4.3201576053       -0.1181692320        0.1534609127
 H          4.0679328507       -2.9388913944       -1.5531830513
 H          5.2606616070       -0.8919082402        2.0306166042
 H          3.8860978943       -0.4071037810       -2.0045329355
 H          2.9244739461       -1.9762973189        2.4593111710
 H          4.6918796459        0.8915349038        0.2296297961
