98

 P                  1.87650000    0.30870000   -0.11420000
 P                 -1.31760000    1.15300000    1.48880000
 N                  1.47270000   -1.18420000   -0.99340000
 N                 -2.17630000   -0.18030000    0.68700000
 C                 -0.59690000   -2.03530000   -0.41900000
 C                 -1.22810000   -1.11320000   -1.18240000
 C                 -1.30320000   -2.96920000    0.26770000
 C                 -1.03360000   -1.04250000   -2.52250000
 C                  0.75510000   -2.04940000   -0.37990000
 C                 -2.03020000   -0.20580000   -0.58170000
 C                 -0.65760000   -3.91380000    0.98480000
 C                 -1.65350000   -0.08460000   -3.24650000
 C                  1.37770000   -3.04390000    0.27740000
 C                 -2.66790000    0.72160000   -1.31620000
 C                  0.68390000   -3.95150000    0.97390000
 C                 -2.47830000    0.78450000   -2.63940000
 C                 -2.65080000   -3.04500000    0.23400000
 C                 -0.28000000   -1.93340000   -3.20120000
 C                 -1.33610000   -4.83980000    1.68760000
 C                 -1.46850000    0.00570000   -4.57680000
 C                 -3.33330000   -3.96550000    0.93170000
 C                 -0.09210000   -1.84690000   -4.52670000
 C                 -2.67550000   -4.86380000    1.67500000
 C                 -0.68050000   -0.86540000   -5.22140000
 C                  3.13100000    1.06770000   -1.29470000
 C                  2.89380000   -0.07930000    1.38990000
 C                 -2.60440000    2.42240000    1.92260000
 C                 -0.61500000    0.50010000    3.07160000
 C                  2.98310000    0.90820000   -2.62190000
 C                  3.88920000   -0.97670000    1.26810000
 C                 -3.89077376    2.19280978    1.60223382
 C                 -0.54690000    1.27370000    4.16930000
 C                  4.17100000    1.78290000   -0.83170000
 C                  2.72850000    0.52360000    2.58000000
 C                 -2.29800100    3.55691219    2.57711591
 C                 -0.15090000   -0.75950000    3.14370000
 C                  3.86940000    1.44640000   -3.47420000
 C                  4.66350000   -1.30140000    2.31510000
 C                 -4.84582205    3.08559884    1.90626954
 C                 -0.03160000    0.79670000    5.31350000
 C                  5.05820000    2.32130000   -1.68300000
 C                  3.49850000    0.20500000    3.63220000
 C                 -3.24970886    4.45241010    2.88409673
 C                  0.36450000   -1.24260000    4.28450000
 C                  4.90950000    2.15240000   -3.00560000
 C                  4.46460000   -0.71590000    3.50480000
 C                 -4.52662436    4.22019135    2.54603190
 C                  0.42460000   -0.46330000    5.37430000
 Rh                 0.34790000    2.06850000    0.11720000
 H                  2.41590000   -1.65470000   -0.99560000
 H                 -1.70830000   -1.05080000    1.04560000
 H                  2.47630000   -3.12980000    0.29460000
 H                 -3.33520000    1.46270000   -0.84380000
 H                  1.23900000   -4.72830000    1.52740000
 H                 -3.00310000    1.57090000   -3.20850000
 H                 -3.26410000   -2.36120000   -0.37450000
 H                  0.20960000   -2.78660000   -2.70470000
 H                 -0.80820000   -5.60790000    2.27860000
 H                 -1.96670000    0.79180000   -5.17000000
 H                 -4.43530000   -3.99350000    0.88760000
 H                  0.53570000   -2.58810000   -5.04970000
 H                 -3.22840000   -5.62810000    2.24590000
 H                 -0.53640000   -0.79050000   -6.31200000
 H                  2.13360000    0.33770000   -3.03290000
 H                  4.09730000   -1.46150000    0.30020000
 H                 -4.18916555    1.26671574    1.08407578
 H                 -0.90700000    2.31430000    4.15210000
 H                  4.31180000    1.94090000    0.25000000
 H                  1.96320000    1.29850000    2.72750000
 H                 -1.26221289    3.77574383    2.88255472
 H                 -0.17190000   -1.42010000    2.26660000
 H                  3.74140000    1.31060000   -4.56130000
 H                  5.47040000   -2.04390000    2.19620000
 H                 -5.89582812    2.88530817    1.63405514
 H                  0.02170000    1.44280000    6.20570000
 H                  5.90960000    2.90580000   -1.29560000
 H                  3.34200000    0.70590000    4.60250000
 H                 -2.98353252    5.37895747    3.42021526
 H                  0.74680000   -2.27660000    4.32280000
 H                  5.63720000    2.59610000   -3.70540000
 H                  5.10110000   -0.97650000    4.36650000
 H                 -5.31003203    4.95352487    2.79996354
 H                  0.85320000   -0.85410000    6.31200000
 C                  0.53474033    5.74449921   -1.44872482
 C                  1.01611211    5.14060170   -0.17094757
 C                 -0.04310863    4.45025312   -1.91791919
 H                  1.31171357    6.13310549   -2.07338291
 H                 -0.18263423    6.52846958   -1.32356813
 C                 -0.28379762    4.51452977    0.39012764
 C                  1.85847823    3.94774140   -0.68479621
 H                  1.52398556    5.81661878    0.48476994
 C                 -0.96541716    4.07028330   -0.73406672
 C                  1.17685869    3.50349493   -1.80899057
 H                 -0.51470875    4.48789697   -2.87764638
 H                 -0.69108000    4.76279391    1.34793033
 H                  2.89405040    3.81426517   -0.45097068
 H                 -2.01648132    3.89896178   -0.83805263
 H                  1.56864908    2.95043304   -2.63695364