  111
 
 P          0.0263000388        0.8071503615       -0.5065504105
 C          1.5275890398        0.8734233700       -1.5509531296
 C          1.3985512988        0.3924167813       -2.8472055151
 C          2.4774020935        0.4177320317       -3.7172140761
 C          3.7087570448        0.9069639796       -3.3055734000
 C          3.8335457088        1.3644889085       -2.0002309998
 C          2.7571344011        1.3532882244       -1.1239956117
 C          0.2847738265        2.2415266217        0.5968734337
 C          0.0986660707        2.1443845584        1.9716186491
 C          0.2183109109        3.2741349282        2.7645656129
 C          0.4831532827        4.5201712118        2.2093662430
 C          0.6417529663        4.6101087349        0.8350334859
 C          0.5500903641        3.4830437236        0.0318976354
 P         -2.6592648416       -0.7759363017       -0.3449297442
 C         -1.4897872078       -2.2066969160       -0.1010361510
 C         -2.1136616704       -3.5163089800        0.3694501668
 C          0.4054188595       -0.5514012451        0.5851543313
 C         -0.3549494352       -1.7568306496        0.7630620059
 C          0.2861629034       -2.5120354285        1.7730388769
 C          1.4465938472       -1.8205708616        2.1853551086
 C          1.5397404868       -0.6266068639        1.4528661832
 H          0.4380595453        0.0068758012       -3.1760254805
 H          2.8829860377        1.7311916764       -0.1212510368
 H         -0.1281347363        1.1897580058        2.4229530283
 H          0.6942159571        3.5737773537       -1.0363520598
 H         -1.0770694355       -2.3779821394       -1.1060514640
 H         -1.3435234297       -4.2844402002        0.3896076864
 H         -2.8989778014       -3.8359294025       -0.3103638873
 H         -2.5447619551       -3.4304348215        1.3624918234
 Rh        -1.8961962113        0.8728612224       -1.7075444839
 H          2.3101625137        0.1118905317        1.5587595120
 C         -3.0540874981        1.5338342711        3.5868000976
 C         -2.8159603413        0.1655391604        3.6715408802
 C         -2.7029219863       -0.5729594499        2.5006196168
 C         -2.8182680552        0.0519345276        1.2650438856
 C         -3.0420554444        1.4256861213        1.2056008689
 C         -3.1661463784        2.1806586126        2.3634222716
 H         -2.5221794962       -1.6345490367        2.5604359444
 H         -3.1372151468        1.9122083308        0.2324471423
 C         -6.6777269781       -2.7078217354       -1.3236609569
 C         -6.5846392591       -1.9329877499       -0.1749674822
 C         -5.3652928296       -1.3447876765        0.1399305931
 C         -4.2655942431       -1.5431743274       -0.6831523275
 C         -4.3806105646       -2.3168212049       -1.8360551540
 C         -5.5881324449       -2.9113464187       -2.1649609280
 H         -5.2705672014       -0.7368804130        1.0285627333
 H         -3.5128954773       -2.4592159850       -2.4685782513
 Fe         1.4996642831       -2.2126349981        0.1745843393
 C          2.3856569571       -4.0260926288       -0.1431206019
 C          3.3485239517       -3.0006347950       -0.2580966010
 C          2.9431822343       -2.1371030100       -1.2935964116
 C          1.7289469787       -2.6315301172       -1.8265529703
 C          1.3892533451       -3.8004495898       -1.1168517771
 H          2.4187276950       -4.8466351434        0.5480366248
 H          3.4951097592       -1.2868563131       -1.6399558245
 H          1.1927294702       -2.2351678444       -2.6667027259
 H          0.5394346265       -4.4283857174       -1.3046875077
 H          4.5491524649        0.9317365099       -3.9825090394
 H          0.5657812818        5.3968787095        2.8335923319
 H         -3.1501658162        2.1056449491        4.4976962551
 H         -7.6232532047       -3.1668523306       -1.5728482154
 C         -2.6654642466       -0.4840275614        5.0092409391
 H         -3.4947686194       -0.2148119700        5.6598476972
 H         -2.6231462080       -1.5661662160        4.9213748666
 H         -1.7482122054       -0.1375011646        5.4837857225
 C         -3.4301008214        3.6516949939        2.2854629023
 H         -4.4969410957        3.8293250313        2.1508959868
 H         -3.1213360660        4.1523903383        3.1984757645
 H         -2.9075591801        4.0959764840        1.4402357493
 C         -7.7835858035       -1.7254810480        0.6952248900
 H         -7.4998705911       -1.3227020648        1.6638596841
 H         -8.4713684590       -1.0256361385        0.2207703932
 H         -8.3167153492       -2.6618868201        0.8432288026
 C         -5.7323971941       -3.7544257813       -3.3925369134
 H         -6.4773047729       -3.3243889473       -4.0601266202
 H         -4.7905306066       -3.8367973965       -3.9283667424
 H         -6.0699716886       -4.7543396945       -3.1258553806
 F          1.7046807808       -1.3031860843       -5.1257199478
 C          2.2523323896       -0.0759269927       -5.1242725561
 F          1.3738757529        0.7163114438       -5.7697854337
 F          3.3570688297       -0.1270418820       -5.8571383553
 F          5.7667133283        0.8669550629       -0.7670939759
 C          5.1699158959        1.8383945666       -1.4821203321
 F          6.0116564710        2.1887131572       -2.4509333321
 F          5.0384771929        2.8870190943       -0.6589481649
 F          1.1138820071        3.6876937409        4.9062705301
 C          0.0594742245        3.1790077259        4.2616184471
 F         -1.0187531596        3.8531366822        4.6910133029
 F         -0.0869334175        1.9171685366        4.6859263620
 F         -0.2017878976        6.2608587766       -0.5990817124
 C          0.8697465439        5.9365394708        0.1545155034
 F          1.0736232751        6.9404938742        0.9999532799
 F          1.9128765441        5.8893849848       -0.6853368642
 H          2.1436598978       -2.1563992846        2.9268859974
 H         -0.0352472920       -3.4580443655        2.1612019567
 H          4.2366947907       -2.8968470654        0.3344848162
 C         -3.3279947323        2.7688220573       -4.4218377561
 C         -2.2803525053        1.6430356353       -4.3631038473
 C         -3.5171876500        2.8008108946       -2.8947911081
 H         -4.2322424601        2.4866499642       -4.9592427866
 H         -2.9327106543        3.7002829396       -4.8244615094
 C         -1.3036067100        2.2354956507       -3.3447800041
 C         -3.0372024480        0.6120724129       -3.5278373290
 H         -1.8505101973        1.2970882029       -5.2982400017
 C         -2.0636524286        2.9430471610       -2.4464688842
 C         -3.7979889488        1.3227481882       -2.6212683879
 H         -4.2241585814        3.5154657418       -2.4842636021
 H         -0.2494914003        2.3604695420       -3.5443011048
 H         -3.1896282083       -0.4114989217       -3.8435701234
 H         -1.7291758416        3.7032576173       -1.7524322751
 H         -4.6764136385        0.9703915026       -2.0962556856
