  91
 
 C         -4.8809909064        0.2222217256       -1.3595228912
 C         -4.9670942479        1.5631942327       -0.9382128422
 C         -3.9500220257        2.2927456436       -1.5940062132
 C         -3.2316892854        1.4001372025       -2.4129880752
 C         -3.8229806341        0.1255608450       -2.2841201826
 H         -5.5333036801       -0.5751063992       -1.0591813518
 H         -5.6902669773        1.9666452041       -0.2567656413
 H         -3.7901259875        3.3503847603       -1.5109213331
 H         -2.4234845972        1.6613234150       -3.0701837928
 H         -3.5676103694       -0.7512157852       -2.8465246745
 Fe        -3.1462088171        0.8596239361       -0.4067906406
 C         -2.5126126597        2.0819851155        1.0519897239
 C         -1.4111375386        1.4210195235        0.4554839055
 C         -1.5593939124        0.0123578966        0.6634140631
 C         -2.8079227573       -0.1570781927        1.3418902992
 C         -3.3715982771        1.1038104898        1.5894099456
 H         -2.6847341661        3.1393233397        1.0839721228
 H         -3.2588659336       -1.0789965151        1.6458528111
 H         -4.3001985594        1.2855572620        2.0917908149
 C         -0.3754334272        2.0641492629       -0.3957536822
 H         -0.4203510734        1.5770902825       -1.3812851985
 P         -0.2815216468       -1.2391942657        0.3880041518
 C         -0.6287247731        3.5536473320       -0.5942053157
 H          0.0579793666        3.9709173198       -1.3254753462
 H         -1.6416018332        3.6849539671       -0.9660035818
 H         -0.5161289822        4.1068339034        0.3345765955
 P          1.3458131123        1.6431638850        0.1780867188
 Rh         1.8916185681       -0.5485732068       -0.1366357886
 C          1.6191799782        2.4394396598        1.7861875194
 C          2.2011369015        3.5152820401        4.2821033160
 C          3.2317925262        3.1538053762        3.4279798064
 C          2.9434036706        2.6117844893        2.1904109334
 C          0.5907953197        2.7811794982        2.6573670263
 C          0.8852558812        3.3235698270        3.8965146377
 H          2.4251980639        3.9394891220        5.2484620570
 H          4.2590330005        3.2934604368        3.7290177276
 H          3.7446582537        2.3265862663        1.5205002117
 H         -0.4375602825        2.6203474665        2.3749823642
 H          0.0817654481        3.5947672313        4.5644560085
 C          2.2355496797        2.6941921133       -1.0209943262
 C          3.4267140418        4.1859149841       -3.0371006698
 C          3.3751503949        4.6786227327       -1.7441806321
 C          2.7771379138        3.9403951580       -0.7355211198
 C          2.2852456972        2.2053162508       -2.3262111601
 C          2.8767075863        2.9463975774       -3.3299554133
 H          3.8945881132        4.7655702362       -3.8173530001
 H          3.7988218643        5.6445449438       -1.5172069965
 H          2.7315240018        4.3377377799        0.2677106884
 H          1.8639238512        1.2255203821       -2.5376087579
 H          2.9134999182        2.5621929673       -4.3381850556
 C         -1.1394183681       -2.2902647258       -0.9307903746
 C         -2.6270857588       -2.5193226398       -0.6869361811
 H         -2.7968410340       -3.1441122575        0.1831312968
 H         -3.1561883968       -1.5773370096       -0.5681588980
 H         -3.0477036427       -3.0354335726       -1.5475991940
 C         -0.9568907113       -1.3996971682       -2.1637204850
 H         -1.4712912032       -0.4520933399       -2.0029211602
 H          0.1020455171       -1.1951843878       -2.3384686279
 H         -1.3636351673       -1.8773403726       -3.0514718855
 C         -0.4493362953       -3.6350731428       -1.1394002055
 H          0.5853667668       -3.5081849595       -1.4394610125
 H         -0.4838068729       -4.2435148096       -0.2388736903
 H         -0.9585865050       -4.1851886670       -1.9290312501
 C         -0.1904360119       -2.0242333445        2.1319812406
 C         -1.2997793520       -3.0046311317        2.4982824826
 H         -2.2773680169       -2.5379817770        2.5174522247
 H         -1.3227622864       -3.8514763749        1.8174535953
 H         -1.1064721275       -3.3913614999        3.4983374691
 C          1.1462760283       -2.7559794548        2.2569839878
 H          1.1737410850       -3.6389475062        1.6240159203
 H          1.9717084706       -2.0855034962        2.0007017588
 H          1.2892353945       -3.0841841240        3.2854612500
 C         -0.1618049430       -0.8484028909        3.1133580347
 H          0.5869594943       -0.1148923887        2.8033687882
 H         -1.1258039743       -0.3532027677        3.1838066310
 H          0.1045841008       -1.2044684969        4.1067166424
 C          5.0856229577       -2.0239035946       -1.0705629872
 C          4.1089743287       -1.0841556241       -1.7992112719
 C          4.1977620188       -2.1222949001        0.1827902934
 H          6.0552358672       -1.5666704242       -0.8774853260
 H          5.2214568926       -2.9801721142       -1.5746355582
 C          2.8159996742       -1.8811507083       -1.6692524342
 C          3.9282102559       -0.0019867739       -0.7379591317
 H          4.3744932082       -0.7451886666       -2.7961126400
 C          2.8682552071       -2.5234533442       -0.4559849215
 C          3.9790193408       -0.6427807077        0.4809819400
 H          4.5463165708       -2.7399561431        1.0053894657
 H          2.1927517342       -2.1218717287       -2.5193665227
 H          4.1439659630        1.0374664597       -0.9296706885
 H          2.3366297036       -3.4152852229       -0.1717185466
 H          4.1646117750       -0.1974147301        1.4506398265
