 xtb: 6.6.1 (8d0f1dd)
          02052414113D

 87102  0     0  0            999 V2000
    0.0344    0.9741   -0.5421 P   0  0  0  0  0  0  0  0  0  0  0  0
   -2.6508   -0.7816   -0.1469 P   0  0  0  0  0  0  0  0  0  0  0  0
   -1.2318   -1.9913    0.0758 C   0  0  0  0  0  0  0  0  0  0  0  0
   -1.5540   -3.4362    0.4307 C   0  0  0  0  0  0  0  0  0  0  0  0
    0.4453   -0.1578    0.7826 C   0  0  0  0  0  0  0  0  0  0  0  0
   -0.2621   -1.3812    1.0334 C   0  0  0  0  0  0  0  0  0  0  0  0
    0.2775   -1.9522    2.2090 C   0  0  0  0  0  0  0  0  0  0  0  0
    1.3242   -1.1201    2.6649 C   0  0  0  0  0  0  0  0  0  0  0  0
    1.4415   -0.0233    1.7914 C   0  0  0  0  0  0  0  0  0  0  0  0
   -0.7362   -1.9823   -0.9036 H   0  0  0  0  0  0  0  0  0  0  0  0
   -0.6469   -4.0252    0.3162 H   0  0  0  0  0  0  0  0  0  0  0  0
   -2.3236   -3.8445   -0.2201 H   0  0  0  0  0  0  0  0  0  0  0  0
   -1.8806   -3.5310    1.4585 H   0  0  0  0  0  0  0  0  0  0  0  0
   -2.0548    1.0189   -1.4079 Rh  0  0  0  0  0  0  0  0  0  0  0  0
    2.1438    0.7823    1.8803 H   0  0  0  0  0  0  0  0  0  0  0  0
   -3.4348    0.8633    4.0858 C   0  0  0  0  0  0  0  0  0  0  0  0
   -3.7822   -0.4497    3.8403 C   0  0  0  0  0  0  0  0  0  0  0  0
   -3.6179   -1.0382    2.5882 C   0  0  0  0  0  0  0  0  0  0  0  0
   -3.0799   -0.2640    1.5544 C   0  0  0  0  0  0  0  0  0  0  0  0
   -2.7485    1.0712    1.8115 C   0  0  0  0  0  0  0  0  0  0  0  0
   -2.9191    1.6358    3.0577 C   0  0  0  0  0  0  0  0  0  0  0  0
   -2.3510    1.6823    0.9993 H   0  0  0  0  0  0  0  0  0  0  0  0
   -6.2685   -2.8361   -2.0996 C   0  0  0  0  0  0  0  0  0  0  0  0
   -6.4203   -2.1401   -0.9118 C   0  0  0  0  0  0  0  0  0  0  0  0
   -5.3194   -1.5546   -0.3176 C   0  0  0  0  0  0  0  0  0  0  0  0
   -4.0537   -1.6707   -0.8904 C   0  0  0  0  0  0  0  0  0  0  0  0
   -3.9099   -2.3044   -2.1324 C   0  0  0  0  0  0  0  0  0  0  0  0
   -5.0270   -2.8988   -2.7067 C   0  0  0  0  0  0  0  0  0  0  0  0
   -5.4366   -0.9961    0.5999 H   0  0  0  0  0  0  0  0  0  0  0  0
    1.7037   -1.7676    0.7515 Fe  0  0  0  0  0  0  0  0  0  0  0  0
    2.8379   -3.4897    0.7737 C   0  0  0  0  0  0  0  0  0  0  0  0
    3.6773   -2.3579    0.6801 C   0  0  0  0  0  0  0  0  0  0  0  0
    3.3426   -1.6646   -0.5005 C   0  0  0  0  0  0  0  0  0  0  0  0
    2.3028   -2.3742   -1.1443 C   0  0  0  0  0  0  0  0  0  0  0  0
    1.9959   -3.5028   -0.3588 C   0  0  0  0  0  0  0  0  0  0  0  0
    2.8602   -4.2299    1.5515 H   0  0  0  0  0  0  0  0  0  0  0  0
    3.8231   -0.7785   -0.8656 H   0  0  0  0  0  0  0  0  0  0  0  0
    1.8707   -2.1428   -2.0993 H   0  0  0  0  0  0  0  0  0  0  0  0
    1.2902   -4.2720   -0.6101 H   0  0  0  0  0  0  0  0  0  0  0  0
   -3.5726    1.2847    5.0694 H   0  0  0  0  0  0  0  0  0  0  0  0
   -7.1197   -3.3077   -2.5653 H   0  0  0  0  0  0  0  0  0  0  0  0
    1.9294   -1.2966    3.5328 H   0  0  0  0  0  0  0  0  0  0  0  0
   -0.0327   -2.8636    2.6809 H   0  0  0  0  0  0  0  0  0  0  0  0
    4.4446   -2.0815    1.3784 H   0  0  0  0  0  0  0  0  0  0  0  0
    1.0878    0.5747   -1.9436 C   0  0  0  0  0  0  0  0  0  0  0  0
    2.3539    0.8236   -2.3913 C   0  0  0  0  0  0  0  0  0  0  0  0
    0.3858   -0.1053   -2.8889 O   0  0  0  0  0  0  0  0  0  0  0  0
    2.4327    0.2457   -3.6786 C   0  0  0  0  0  0  0  0  0  0  0  0
    3.1215    1.3582   -1.8719 H   0  0  0  0  0  0  0  0  0  0  0  0
    1.2105   -0.3027   -3.9259 C   0  0  0  0  0  0  0  0  0  0  0  0
    3.2828    0.2425   -4.3287 H   0  0  0  0  0  0  0  0  0  0  0  0
    0.8264   -0.8356   -4.7738 H   0  0  0  0  0  0  0  0  0  0  0  0
    0.7693    2.5092    0.0346 C   0  0  0  0  0  0  0  0  0  0  0  0
    0.7659    3.1481    1.2473 C   0  0  0  0  0  0  0  0  0  0  0  0
    1.3067    3.3168   -0.9105 O   0  0  0  0  0  0  0  0  0  0  0  0
    1.3711    4.4051    1.0287 C   0  0  0  0  0  0  0  0  0  0  0  0
    0.3896    2.7583    2.1714 H   0  0  0  0  0  0  0  0  0  0  0  0
    1.6766    4.4497   -0.2984 C   0  0  0  0  0  0  0  0  0  0  0  0
    1.5532    5.1677    1.7570 H   0  0  0  0  0  0  0  0  0  0  0  0
    2.1479    5.2030   -0.8984 H   0  0  0  0  0  0  0  0  0  0  0  0
   -4.0575   -2.4617    2.4400 C   0  0  0  0  0  0  0  0  0  0  0  0
   -5.1035   -2.5549    2.7312 H   0  0  0  0  0  0  0  0  0  0  0  0
   -3.9526   -2.8198    1.4221 H   0  0  0  0  0  0  0  0  0  0  0  0
   -3.4837   -3.0999    3.1114 H   0  0  0  0  0  0  0  0  0  0  0  0
   -2.6043   -2.3137   -2.8678 C   0  0  0  0  0  0  0  0  0  0  0  0
   -1.9658   -3.1279   -2.5280 H   0  0  0  0  0  0  0  0  0  0  0  0
   -2.7770   -2.4544   -3.9329 H   0  0  0  0  0  0  0  0  0  0  0  0
   -2.0716   -1.3645   -2.7215 H   0  0  0  0  0  0  0  0  0  0  0  0
   -4.9222   -3.4067   -3.6544 H   0  0  0  0  0  0  0  0  0  0  0  0
   -7.3926   -2.0507   -0.4529 H   0  0  0  0  0  0  0  0  0  0  0  0
   -4.1967   -1.0495    4.6375 H   0  0  0  0  0  0  0  0  0  0  0  0
   -2.6566    2.6687    3.2275 H   0  0  0  0  0  0  0  0  0  0  0  0
   -3.8638    3.3411   -3.4816 C   0  0  0  0  0  0  0  0  0  0  0  0
   -3.0477    2.0739   -3.7897 C   0  0  0  0  0  0  0  0  0  0  0  0
   -3.6107    3.2492   -1.9668 C   0  0  0  0  0  0  0  0  0  0  0  0
   -4.9166    3.2477   -3.7463 H   0  0  0  0  0  0  0  0  0  0  0  0
   -3.4467    4.2411   -3.9323 H   0  0  0  0  0  0  0  0  0  0  0  0
   -1.7409    2.4075   -3.0717 C   0  0  0  0  0  0  0  0  0  0  0  0
   -3.7012    1.0855   -2.8237 C   0  0  0  0  0  0  0  0  0  0  0  0
   -2.9671    1.7599   -4.8262 H   0  0  0  0  0  0  0  0  0  0  0  0
   -2.0869    3.1306   -1.9548 C   0  0  0  0  0  0  0  0  0  0  0  0
   -4.0511    1.8092   -1.7039 C   0  0  0  0  0  0  0  0  0  0  0  0
   -4.0439    4.0151   -1.3302 H   0  0  0  0  0  0  0  0  0  0  0  0
   -0.7707    2.3695   -3.5474 H   0  0  0  0  0  0  0  0  0  0  0  0
   -4.1219    0.1407   -3.1375 H   0  0  0  0  0  0  0  0  0  0  0  0
   -1.4477    3.7751   -1.3666 H   0  0  0  0  0  0  0  0  0  0  0  0
   -4.7799    1.5355   -0.9525 H   0  0  0  0  0  0  0  0  0  0  0  0
  2  3  1  0  0  0  0
  3  4  1  0  0  0  0
  1  5  1  0  0  0  0
  3  6  1  0  0  0  0
  5  6  1  0  0  0  0
  6  7  4  0  0  0  0
  7  8  4  0  0  0  0
  5  9  4  0  0  0  0
  8  9  4  0  0  0  0
  3 10  1  0  0  0  0
  4 11  1  0  0  0  0
  4 12  1  0  0  0  0
  4 13  1  0  0  0  0
  1 14  1  0  0  0  0
  2 14  1  0  0  0  0
  9 15  1  0  0  0  0
 16 17  4  0  0  0  0
 17 18  4  0  0  0  0
  2 19  1  0  0  0  0
 18 19  4  0  0  0  0
 19 20  4  0  0  0  0
 16 21  4  0  0  0  0
 20 21  4  0  0  0  0
 20 22  1  0  0  0  0
 23 24  4  0  0  0  0
 24 25  4  0  0  0  0
  2 26  1  0  0  0  0
 25 26  4  0  0  0  0
 26 27  4  0  0  0  0
 23 28  4  0  0  0  0
 27 28  4  0  0  0  0
 25 29  1  0  0  0  0
  6 30  1  0  0  0  0
  9 30  1  0  0  0  0
 30 31  1  0  0  0  0
 30 32  1  0  0  0  0
 31 32  4  0  0  0  0
 30 33  1  0  0  0  0
 32 33  4  0  0  0  0
 30 34  1  0  0  0  0
 33 34  4  0  0  0  0
 31 35  4  0  0  0  0
 34 35  4  0  0  0  0
 31 36  1  0  0  0  0
 33 37  1  0  0  0  0
 34 38  1  0  0  0  0
 35 39  1  0  0  0  0
 16 40  1  0  0  0  0
 23 41  1  0  0  0  0
  8 42  1  0  0  0  0
  7 43  1  0  0  0  0
 32 44  1  0  0  0  0
  1 45  1  0  0  0  0
 45 46  2  0  0  0  0
 45 47  1  0  0  0  0
 46 48  4  0  0  0  0
 46 49  1  0  0  0  0
 47 50  1  0  0  0  0
 48 50  2  0  0  0  0
 48 51  1  0  0  0  0
 50 52  1  0  0  0  0
  1 53  1  0  0  0  0
 53 54  2  0  0  0  0
 53 55  1  0  0  0  0
 54 56  4  0  0  0  0
 54 57  1  0  0  0  0
 55 58  1  0  0  0  0
 56 58  2  0  0  0  0
 56 59  1  0  0  0  0
 58 60  1  0  0  0  0
 18 61  1  0  0  0  0
 61 62  1  0  0  0  0
 61 63  1  0  0  0  0
 61 64  1  0  0  0  0
 27 65  1  0  0  0  0
 65 66  1  0  0  0  0
 65 67  1  0  0  0  0
 65 68  1  0  0  0  0
 28 69  1  0  0  0  0
 24 70  1  0  0  0  0
 17 71  1  0  0  0  0
 21 72  1  0  0  0  0
 73 74  1  0  0  0  0
 73 75  1  0  0  0  0
 73 76  1  0  0  0  0
 73 77  1  0  0  0  0
 14 78  1  0  0  0  0
 74 78  1  0  0  0  0
 14 79  1  0  0  0  0
 74 79  1  0  0  0  0
 74 80  1  0  0  0  0
 14 81  1  0  0  0  0
 75 81  1  0  0  0  0
 78 81  2  0  0  0  0
 14 82  1  0  0  0  0
 75 82  1  0  0  0  0
 79 82  2  0  0  0  0
 75 83  1  0  0  0  0
 78 84  1  0  0  0  0
 79 85  1  0  0  0  0
 81 86  1  0  0  0  0
 82 87  1  0  0  0  0
M  CHG  1   1   1
M  END
