  119
 
 P          0.0287019546        1.0042137031       -0.6879241435
 C          1.0149780407        0.5279285995       -2.1279727814
 C          0.3747832959       -0.0608955918       -3.2107877792
 C          1.0858473257       -0.4113548854       -4.3402247357
 C          2.4718037440       -0.1548103150       -4.4016035021
 C          3.1352823631        0.4037654435       -3.2967083823
 C          2.3848797752        0.7291596076       -2.1747517597
 C          0.7004415651        2.6298418292       -0.2226577567
 C          0.5665983604        3.0777813048        1.0865756442
 C          0.9630005912        4.3540467005        1.4534828739
 C          1.4970971606        5.2014404705        0.4769768446
 C          1.6111622342        4.7792140787       -0.8518333047
 C          1.2009534693        3.4977808800       -1.1858049986
 P         -2.5857621092       -0.8523631931        0.0441433409
 C         -1.0953008176       -1.9660852334        0.2561846436
 C         -1.2768754469       -3.3962958056        0.7560738792
 C          0.6226773201       -0.0618396444        0.6221015771
 C         -0.0408215580       -1.2574478209        1.0481524481
 C          0.6462022069       -1.7424427527        2.1890130182
 C          1.7428783948       -0.8882844124        2.4413133049
 C          1.7412837370        0.1381839378        1.4787207281
 H         -0.6991800214       -0.2349339582       -3.1611622650
 H          2.8783134207        1.1418790975       -1.3074031404
 H          0.1488761675        2.4235890713        1.8381075110
 H          1.2813736488        3.1719399826       -2.2134366021
 H         -0.7072752365       -2.0180452857       -0.7732297111
 H         -0.2888129775       -3.8427363533        0.8493705494
 H         -1.8472858812       -3.9925228247        0.0515443587
 H         -1.7624037561       -3.4383309314        1.7242440790
 Rh        -2.1840434735        1.0357395153       -1.1899297581
 H          2.4384643521        0.9522647783        1.4232247529
 Fe         1.8658240995       -1.6987785790        0.5675309161
 C          2.6408950593       -3.5919284379        0.5377833247
 C          3.6827745283       -2.6384133020        0.5641723644
 C          3.5681932454       -1.8385194250       -0.5911154773
 C          2.4645775474       -2.3060555292       -1.3387217216
 C          1.8937629305       -3.3867464875       -0.6420191583
 H          2.4737847026       -4.3603772268        1.2693744821
 H          4.2326429745       -1.0458098768       -0.8715379705
 H          2.1440489960       -1.9444014348       -2.2952661297
 H          1.0703323439       -3.9841457082       -0.9847547274
 H          2.4549458140       -1.0042154708        3.2346952509
 H          0.3983040309       -2.6094356138        2.7704615030
 H          4.4367709995       -2.5499060613        1.3232001489
 C         -3.1855377543       -0.3261029225        1.7291370414
 C         -2.9730711854       -1.3023891075        2.8846512209
 C         -2.5244308072        1.0118618360        2.0789812991
 H         -4.2641988058       -0.1561153183        1.6018421146
 C         -3.5860552843       -0.7299674654        4.1632348946
 H         -1.9035873709       -1.4469847073        3.0420149699
 H         -3.4306397408       -2.2682555261        2.6700251196
 C         -3.1269348110        1.5940009142        3.3529437849
 H         -1.4559458084        0.8422747032        2.2331814690
 H         -2.6424378798        1.7239203194        1.2458249096
 C         -2.9542329763        0.6141986976        4.5099162516
 H         -3.4366224776       -1.4331504380        4.9840471374
 H         -4.6624147738       -0.6019994931        4.0273419333
 H         -2.6441928316        2.5433714038        3.5915510745
 H         -4.1902432582        1.7910449477        3.1989624213
 H         -3.4136163271        1.0187304704        5.4125100914
 H         -1.8896490840        0.4731729662        4.7102570648
 C         -3.9603040326       -1.8882948191       -0.6706518038
 C         -3.4716989205       -2.5043721976       -1.9839223624
 C         -4.6467476385       -2.9352294250        0.2044494678
 H         -4.7256025393       -1.1366141598       -0.9162676238
 C         -4.6404096421       -3.1210179874       -2.7469349882
 H         -2.7362939021       -3.2835861679       -1.7803435332
 H         -2.9764558144       -1.7356700606       -2.5896435906
 C         -5.8119696977       -3.5521149032       -0.5716209933
 H         -3.9537770607       -3.7255935159        0.4869260895
 H         -5.0316218980       -2.4737201303        1.1150788532
 C         -5.3307096396       -4.1710088979       -1.8806129592
 H         -4.2820872455       -3.5766386768       -3.6715007176
 H         -5.3611118806       -2.3442449867       -3.0142634417
 H         -6.2941862596       -4.3135236715        0.0431316864
 H         -6.5546249605       -2.7806051073       -0.7883534182
 H         -6.1770719662       -4.5977838861       -2.4196805040
 H         -4.6308489131       -4.9811734230       -1.6649182039
 C          2.1566732798        5.6997871569       -1.8998331631
 O          1.8522947676        6.4926333601        0.8131918210
 O          3.0351597880       -0.5615336147       -5.5721930628
 C          4.1291800608        0.1124352584       -6.1573684453
 H          5.0862852004       -0.2016151174       -5.7374547278
 H          4.1035437720       -0.1674483457       -7.2108851819
 H          4.0220766622        1.1964500992       -6.0771884205
 C          3.1956571130        6.6437889344        1.2282508161
 H          3.8936688629        6.3470455286        0.4389338789
 H          3.3251321679        7.7013951405        1.4477714486
 H          3.4049751990        6.0560699300        2.1276956890
 C          0.8092847667        4.8196027504        2.8688284122
 C          4.6222298409        0.6113383624       -3.2277116228
 C          0.4158109595       -1.0567167214       -5.5119539938
 H          0.6024469725       -0.4810527329       -6.4166502726
 H         -0.6558687286       -1.1348249456       -5.3505202703
 H          0.8265646302       -2.0510513303       -5.6762692919
 H          4.9628570793        1.3741175230       -3.9241346998
 H          5.1485848346       -0.3163816414       -3.4435210676
 H          4.8983275199        0.9345739429       -2.2266189644
 H          3.2230173070        5.5217936860       -2.0419417718
 H          2.0186962974        6.7351020294       -1.5993154837
 H          1.6592066933        5.5327008213       -2.8521779278
 H          0.7655947141        5.9049313288        2.9053838110
 H          1.6548646993        4.4871188856        3.4717010884
 H         -0.0965494079        4.4092818056        3.3089905974
 C         -4.1977976378        3.4040665758       -3.0108258812
 C         -3.3619102134        2.1859963459       -3.4392246535
 C         -3.8532715107        3.2334521800       -1.5212765127
 H         -5.2609465833        3.2916057082       -3.2217775186
 H         -3.8346531997        4.3420442100       -3.4291843671
 C         -2.0262214924        2.5205397108       -2.7768241141
 C         -3.9255322277        1.1219447137       -2.4985246263
 H         -3.3329515483        1.9350842155       -4.4956514294
 C         -2.3295040833        3.1673989925       -1.6004082564
 C         -4.2287845443        1.7651678767       -1.3179682535
 H         -4.2732473874        3.9457308762       -0.8171590763
 H         -1.0871808583        2.5450649831       -3.3113943106
 H         -4.3247335683        0.1838133425       -2.8562884555
 H         -1.6745572273        3.7939016735       -1.0099593362
 H         -4.9111665140        1.4336034680       -0.5472183574
