123

 P                 12.45598200    2.39427500    7.85148000
 P                 12.39469800    4.95372200    5.72924400
 Fe                13.46524600    1.91524000    4.66665500
 C                 14.63646600    3.56631400    4.57846100
 C                 11.97299100    0.74837400    5.42857200
 C                 13.23976400    3.93400300    4.49894200
 C                 12.82429100    1.26218700    6.49045200
 C                 14.16731800    0.82532400    6.22695200
 C                 12.66883100    3.28402900    3.35819900
 C                 14.14927500    0.02805000    5.05488700
 C                 13.69627600    2.53413700    2.72703800
 C                 12.81518600   -0.01805800    4.57035200
 C                 14.90159300    2.71642400    3.46282100
 Rh                13.05818700    4.49436400    7.78122500
 H                 11.62341700    3.31714600    3.05421200
 H                 13.57003000    1.89885500    1.85043300
 H                 15.84695000    2.22235000    3.24832400
 H                 15.05751100    1.09758800    6.79191500
 H                 15.02135700   -0.42735300    4.58632100
 H                 12.50097400   -0.50510000    3.64965900
 C                 15.54117400    4.05171200    5.68168500
 C                 16.76257300    3.20783500    5.99088300
 C                 18.01125926    3.41401917    5.38815535
 C                 16.66535533    2.23125967    6.99092640
 C                 19.11603630    2.64384681    5.75186056
 H                 18.13618215    4.19097116    4.63043269
 C                 17.76652595    1.45878861    7.35784789
 H                 15.70383226    2.07325327    7.49172415
 C                 18.99688049    1.65904974    6.73309967
 H                 20.08094452    2.81864870    5.26680313
 H                 17.66159227    0.70074594    8.13983005
 H                 19.86502521    1.05715520    7.01661730
 C                 10.48321000    0.95043200    5.29141700
 C                  9.98782800    0.89941900    3.85236100
 C                 10.05141000   -0.25026200    3.06980900
 C                  9.37719500    2.01715700    3.31008500
 C                  9.55194600   -0.26080700    1.78084200
 H                 10.49172900   -1.16756400    3.46527500
 C                  8.87857600    2.01351500    2.02191800
 H                  9.28474400    2.91706400    3.91662000
 C                  8.97054400    0.87243000    1.24768900
 H                  9.61534000   -1.17539200    1.18482500
 H                  8.40505500    2.91501300    1.62286300
 H                  8.57607900    0.86116300    0.22812600
 H                 14.89848800    3.99360000    6.59289900
 N                 15.80215400    5.47273800    5.52738500
 C                 16.63523300    5.86701800    4.42300700
 H                 16.31625300    5.34059900    3.50668500
 H                 16.51678400    6.95102200    4.24644000
 H                 17.71727400    5.66422500    4.58176600
 C                 16.09245600    6.15947800    6.75312100
 H                 17.06733100    5.88388200    7.21524900
 H                 16.08504500    7.24855100    6.57479600
 H                 15.29877800    5.93870300    7.50047800
 H                 10.28250700    1.97706400    5.64279400
 N                  9.74458200    0.09830100    6.20943800
 C                  8.37885300    0.51004100    6.39865000
 H                  7.73234400    0.32952400    5.51112200
 H                  7.94727900   -0.03731400    7.25438300
 H                  8.34271100    1.58766100    6.63674000
 C                  9.89677300   -1.32663100    6.09563900
 H                  9.56974000   -1.80099600    7.03999600
 H                  9.29824400   -1.78316500    5.27710700
 H                 10.95713600   -1.58791900    5.94015300
 C                 10.63254300    4.99008600    5.26217700
 C                  7.91555700    5.23494500    4.60973600
 C                  8.89517100    5.69383200    3.71979200
 C                 10.24858600    5.57788000    4.04459200
 C                  9.64825100    4.53747400    6.14976900
 C                  8.29259900    4.65625900    5.82383900
 H                  6.85647200    5.33310700    4.35478100
 H                  8.60264700    6.15435100    2.77174600
 H                 11.00595500    5.96308200    3.35483800
 H                  9.94473500    4.09743900    7.10299500
 H                  7.53276400    4.29868300    6.52464500
 C                 12.90313100    6.67736400    5.44679900
 C                 13.80670942    9.29605834    5.10742951
 C                 12.72263969    8.82584752    4.35989252
 C                 12.27518655    7.51698791    4.52059917
 C                 13.98344903    7.15261015    6.20271401
 C                 14.43806101    8.46039753    6.02841987
 H                 14.15738856   10.32329918    4.97229485
 H                 12.22611931    9.48565229    3.64237186
 H                 11.44246468    7.14113546    3.91984179
 H                 14.46113587    6.49984012    6.94525840
 H                 15.28181556    8.82874203    6.61856962
 C                 13.72215900    2.18291400    9.14828600
 C                 16.03242866    1.98533938   10.71336998
 C                 16.00121987    2.89212621    9.65428429
 C                 14.84125284    3.00274324    8.88683685
 C                 13.76120630    1.28592301   10.21718596
 C                 14.91127660    1.20288836   11.00237663
 H                 16.93121463    1.89924932   11.33021686
 H                 16.86538263    3.52665488    9.44021540
 H                 14.76617890    3.85081895    8.15593584
 H                 12.89774075    0.65532103   10.44263488
 H                 14.93475700    0.51303072   11.85093948
 C                 10.92655600    1.90115300    8.68851400
 C                  8.75418600    1.13311000   10.25932700
 C                  9.57676200    0.16194200    9.68209600
 C                 10.65828300    0.54039200    8.88881300
 C                 10.11593300    2.87253400    9.28667700
 C                  9.02305100    2.48786500   10.06528400
 H                  7.90279300    0.82898900   10.87524100
 H                  9.37316200   -0.89942900    9.85106400
 H                 11.30665000   -0.22000700    8.44784000
 H                 10.35629400    3.93322900    9.15434700
 H                  8.38848700    3.24831200   10.52873000
 C                 13.28877419    7.04584801   10.85315581
 C                 14.24415957    6.62607644    9.78537480
 C                 12.21432246    6.14813204   10.33471079
 H                 13.03975924    8.08636297   10.83831703
 H                 13.61134226    6.81920991   11.84788442
 C                 14.24272822    5.08675408    9.94975656
 C                 13.42331490    6.90332676    8.50245504
 H                 15.20504957    7.09473018    9.82957948
 C                 12.93650698    4.77919189   10.30325998
 C                 12.11709366    6.59576458    8.85595846
 H                 11.29819882    6.17482511   10.88689278
 H                 15.12596753    4.51447528   10.14285061
 H                 13.75466718    7.55453660    7.72077007
 H                 12.58603541    3.91642417   10.83023391
 H                 11.21473506    6.95648549    8.40815338