  119
 
 P         -0.0005488898        1.1108649309       -0.7393802369
 C          1.0322268739        0.6367881141       -2.1471109698
 C          0.4123795469        0.0642193130       -3.2511782930
 C          1.1504431542       -0.3043188846       -4.3567403713
 C          2.5452528453       -0.0903850335       -4.3698233950
 C          3.1861926559        0.4486703813       -3.2426083063
 C          2.4071917033        0.7990719181       -2.1474019554
 C          0.6742631666        2.7029454733       -0.1823059429
 C          0.5086466184        3.0874897941        1.1444722391
 C          0.9138426802        4.3383224689        1.5786623805
 C          1.4796386374        5.2277982496        0.6561477254
 C          1.6083767601        4.8747072950       -0.6913079831
 C          1.1990309650        3.6112777026       -1.0921029844
 P         -2.6555884130       -0.6633522675       -0.1589355296
 C         -1.2550613151       -1.8633106932        0.1175117919
 C         -1.6504632463       -3.2155515965        0.6948076720
 C          0.5011864039       -0.0068119734        0.5671755789
 C         -0.2053560433       -1.1942925496        0.9460233872
 C          0.4237151582       -1.7141683831        2.1034470818
 C          1.5329888143       -0.8953778858        2.4104128393
 C          1.5952226356        0.1454256927        1.4659617184
 H         -0.6677465949       -0.0851736533       -3.2360298401
 H          2.8822750980        1.2005010073       -1.2645411950
 H          0.0698385980        2.3955078467        1.8504094605
 H          1.2931873336        3.3326387793       -2.1327802149
 H         -0.8229501424       -2.0122043987       -0.8825414561
 H         -0.7673177751       -3.8499463447        0.7337156805
 H         -2.4040032568       -3.7006561631        0.0790826645
 H         -2.0390598954       -3.1093229644        1.7032819414
 Rh        -2.1757237225        1.1942900503       -1.3633003075
 H          2.3160615770        0.9407333544        1.4503477075
 C         -3.6594729850        0.6777970382        4.0907846534
 C         -3.9908280887       -0.6228909234        3.7295683771
 C         -3.7186768429       -1.0513671309        2.4376138301
 C         -3.1250803064       -0.1863704023        1.5260723153
 C         -2.8166712101        1.1167259461        1.9042832325
 C         -3.0774945775        1.5622923452        3.1906283020
 H         -3.9876000234       -2.0537743474        2.1371807973
 H         -2.3717430634        1.7894226110        1.1686844179
 C         -6.0263388877       -3.1225458908       -2.0267725613
 C         -6.3286192425       -2.2997858502       -0.9500614601
 C         -5.3057235216       -1.5720825249       -0.3551098390
 C         -4.0023682908       -1.6832152375       -0.8207442111
 C         -3.7259314868       -2.4922629339       -1.9207817714
 C         -4.7329579138       -3.2256076851       -2.5281296633
 H         -5.5256941076       -0.9201234475        0.4787986458
 H         -2.7140302964       -2.5450464153       -2.3021422229
 Fe         1.7013653862       -1.6814453569        0.5256667456
 C          2.4214118728       -3.5962983847        0.5099170236
 C          3.4953813609       -2.6785624769        0.5324012134
 C          3.4101878503       -1.8819201951       -0.6277469752
 C          2.2904601005       -2.3138284283       -1.3736380136
 C          1.6816461649       -3.3711234200       -0.6705830098
 H          2.2250032082       -4.3530930473        1.2461569862
 H          4.1028197783       -1.1155459682       -0.9130866763
 H          1.9850695751       -1.9419112816       -2.3319956927
 H          0.8334196045       -3.9396674584       -1.0028383960
 H         -3.8688742862        1.0123447359        5.0967354479
 H         -6.8167696836       -3.6923910676       -2.4933964983
 C         -4.6262632981       -1.5408058697        4.7271294310
 H         -5.5085583366       -1.0765177115        5.1637388674
 H         -4.9175707981       -2.4810488579        4.2663679661
 H         -3.9307436043       -1.7533164886        5.5381076585
 C         -2.7463261013        2.9612864345        3.6087062357
 H         -3.6394988610        3.4712361764        3.9656684839
 H         -2.0270059506        2.9501515980        4.4263096087
 H         -2.3270796070        3.5274155952        2.7809145329
 C         -7.7372350769       -2.1827078313       -0.4574608895
 H         -7.7660928026       -1.7868877657        0.5544341692
 H         -8.3017962396       -1.5095308356       -1.1027973502
 H         -8.2330095973       -3.1503241322       -0.4738960916
 C         -4.4477048770       -4.1172967706       -3.6964948048
 H         -5.1187202499       -3.8897400768       -4.5226893072
 H         -3.4213953002       -4.0045920447       -4.0360562664
 H         -4.6079007474       -5.1587124250       -3.4203016122
 H          2.2120512640       -1.0430306371        3.2273597794
 H          0.1259316940       -2.5808662011        2.6601659981
 H          4.2525430423       -2.6128930364        1.2908838127
 O          1.8339547105        6.4857074175        1.0971527947
 O          3.1318923804       -0.5162127499       -5.5221175840
 C          0.5009827397       -0.9268655814       -5.5524632589
 H          0.7089381066       -0.3371458399       -6.4434611932
 H          0.9095470616       -1.9207868194       -5.7255558694
 H         -0.5744329835       -0.9996758711       -5.4140518462
 C          4.6754900470        0.6128735523       -3.1186743968
 H          5.1834340139       -0.3293689921       -3.3143816483
 H          5.0638113728        1.3650961208       -3.8014133632
 H          4.9230072700        0.9287958883       -2.1076997610
 C          4.2846730963        0.0968665563       -6.0580087208
 H          5.2040761074       -0.2620886544       -5.5923800284
 H          4.2935951059       -0.1895278168       -7.1100616324
 H          4.2294601376        1.1855589455       -5.9888798947
 C          3.2214221949        6.6991369249        1.2695997061
 H          3.7769051310        6.5781870120        0.3358926102
 H          3.3236282970        7.7236905527        1.6213984450
 H          3.6374889205        6.0147629835        2.0171764032
 C          2.1412811661        5.8454234218       -1.7011046700
 H          1.9720202627        6.8672050799       -1.3703036144
 H          3.2118342706        5.6998708749       -1.8491830744
 H          1.6505236051        5.6979804389       -2.6606216999
 C          0.7246042560        4.7564261749        3.0036780512
 H         -0.1200864241        5.4404914580        3.0784243094
 H          0.5354778185        3.8935741472        3.6364690398
 H          1.5990089559        5.2869506740        3.3714635678
 C         -4.1632463207        3.4656870641       -3.3082714391
 C         -3.2988319402        2.2466983360       -3.6726354542
 C         -3.8548817472        3.3535011612       -1.8054332090
 H         -5.2188585147        3.3277611800       -3.5404752994
 H         -3.8043237034        4.3941482745       -3.7514730545
 C         -1.9847683862        2.6300283876       -2.9906946359
 C         -3.8707296360        1.2068565892       -2.7085544018
 H         -3.2390731132        1.9604974117       -4.7188001441
 C         -2.3266048156        3.3089426867       -1.8436930016
 C         -4.2155691495        1.8881128019       -1.5611824860
 H         -4.3034836949        4.0834125676       -1.1378722266
 H         -1.0321778653        2.6489569817       -3.5013431634
 H         -4.2319268630        0.2357146455       -3.0219930834
 H         -1.6937980554        3.9645097069       -1.2594755672
 H         -4.9017606568        1.5623340237       -0.7908840117
