111

 C                 -3.57383200   -0.87737800   -1.27067600
 C                 -4.29525900   -1.37862800   -0.14773600
 C                 -5.12858400   -0.33359400    0.34264000
 C                 -4.92123800    0.81484500   -0.47321400
 C                 -3.96422600    0.47478300   -1.47261100
 H                 -2.84620000   -1.42826400   -1.86587700
 H                 -4.22025300   -2.38097000    0.27092700
 H                 -5.78662300   -0.39221600    1.20990700
 H                 -5.39550300    1.78782000   -0.34242800
 H                 -3.59365500    1.13432000   -2.25723100
 Fe                -3.16733900    0.23780000    0.41017900
 C                 -2.36909800    1.92937300    1.22250400
 C                 -1.35813800    1.18941300    0.53443600
 C                 -1.29571100   -0.11064400    1.15006300
 C                 -2.27504100   -0.15485300    2.19749700
 C                 -2.92428600    1.10693000    2.24310300
 H                 -2.70065300    2.93882100    0.98412600
 H                 -2.47864500   -1.01042300    2.84020500
 H                 -3.73953900    1.38323600    2.91158100
 C                 -0.52658200    1.67166300   -0.62348000
 H                 -0.51797000    0.86126700   -1.37429500
 P                  0.01742600   -1.29401400    0.81118400
 C                 -1.18462400    2.88975900   -1.27185100
 H                 -0.77119700    3.11101000   -2.26418900
 H                 -2.25543600    2.66993700   -1.40718500
 H                 -1.10806900    3.79768100   -0.65735600
 P                  1.32374700    1.75074400   -0.17205700
 Rh                 2.12715500   -0.46925800    0.29580100
 C                  2.13693300    2.64502000   -1.64578400
 C                  1.49017500    2.76994000    1.42545500
 C                  0.55917200    3.98174200    1.48497800
 H                 -0.49916900    3.68287400    1.48951000
 H                  0.74787300    4.52453000    2.42953200
 H                  0.72762500    4.69106700    0.66059600
 C                  2.93551000    3.24076300    1.60617300
 H                  3.03265500    3.68421100    2.61352600
 H                  3.65537100    2.40840400    1.54417700
 H                  3.22290000    4.01887600    0.88276500
 C                  1.16136100    1.82951400    2.59275000
 H                  1.32372500    2.36885600    3.54418100
 H                  0.11363800    1.49386600    2.57291700
 H                  1.81909600    0.93925800    2.58613400
 C                  1.68921000    1.86790300   -2.89304100
 H                  0.62274000    1.99915900   -3.13053900
 H                  2.26458500    2.22108000   -3.76766300
 H                  1.88212700    0.78512700   -2.77896300
 C                  3.66701200    2.55266300   -1.58353600
 H                  4.09458000    3.03333100   -0.69348200
 H                  4.03174200    1.52128000   -1.63083200
 H                  4.07544100    3.08080700   -2.46396000
 C                  1.79941300    4.13579600   -1.77049700
 H                  2.20911500    4.50672200   -2.72788700
 H                  0.72716600    4.36253200   -1.76472900
 H                  2.27704400    4.72348600   -0.97023600
 C                 -0.57137200   -2.40684300   -0.50639800
 C                 -1.59110900   -3.33949700   -0.27816500
 C                 -0.02692200   -2.27939300   -1.78934100
 C                 -2.05579300   -4.13544600   -1.32181400
 H                 -2.02562600   -3.44211000    0.72018700
 C                 -0.50528700   -3.06582400   -2.83743700
 H                  0.78325500   -1.55954900   -1.95600700
 C                 -1.51800500   -3.99555000   -2.60322800
 C                  0.11750500   -2.31238600    2.32418500
 C                  0.31357400   -3.69832100    2.26950800
 C                  0.17201600   -1.66787500    3.57029600
 C                  0.54208700   -4.42624400    3.43774400
 H                  0.28331300   -4.22477800    1.31220400
 C                  0.39822700   -2.39781900    4.73387800
 H                  0.03740300   -0.58512900    3.63400500
 C                  0.58364100   -3.78009300    4.67116500
 O                 -2.00464635   -4.80885205   -3.67403142
 O                  0.81535862   -4.52872035    5.86731049
 C                  0.74559943   -5.95048350    3.35481854
 H                  1.62224661   -6.22367576    3.90414150
 H                 -0.10562249   -6.44716062    3.77151157
 H                  0.86157561   -6.23966320    2.33118549
 C                  0.07208410   -5.74938042    5.81799536
 H                  0.68322128   -6.52250557    5.40123541
 H                 -0.22656434   -6.02534865    6.80771787
 H                 -0.79656088   -5.61364769    5.20813266
 C                  0.44374519   -1.67189205    6.09128662
 H                 -0.32034734   -2.06247580    6.73043208
 H                  1.40067169   -1.82403744    6.54520672
 H                  0.28253749   -0.62478525    5.94135520
 C                 -3.17313053   -5.16321879   -1.06327978
 H                 -3.99669596   -4.96689344   -1.71757050
 H                 -2.79989476   -6.14928509   -1.24567575
 H                 -3.49913248   -5.08757938   -0.04696221
 C                 -1.02103403   -5.78975595   -4.01349328
 H                 -1.46989954   -6.55109086   -4.61664244
 H                 -0.22682444   -5.32450240   -4.55908495
 H                 -0.63038878   -6.22763734   -3.11875524
 C                  0.09337703   -2.91357266   -4.24811801
 H                  0.88260057   -3.62408984   -4.37923456
 H                 -0.66813857   -3.08737238   -4.97940978
 H                  0.48162381   -1.92347076   -4.36585777
 C                  5.22744700   -2.36306900    0.31408200
 C                  4.04118900   -2.30052700   -0.66990000
 C                  4.61711500   -1.31658300    1.26987800
 H                  6.18173800   -2.03350000   -0.13292100
 H                  5.34642500   -3.35746100    0.77887000
 C                  2.86349100   -2.52349100    0.28451800
 C                  3.94371500   -0.79162000   -0.90369000
 H                  4.06944000   -2.93104000   -1.56705200
 C                  3.22037900   -1.91373600    1.48721600
 C                  4.31307400   -0.17677500    0.28837100
 H                  5.17573900   -1.04521300    2.17408600
 H                  2.09182300   -3.27965100    0.13145600
 H                  3.87702300   -0.34434100   -1.89628000
 H                  2.75964400   -2.07491500    2.46453300
 H                  4.62918000    0.85673600    0.42564000