87

 P                  0.15639200    0.96603800   -0.80757700
 P                 -2.63177500   -0.71775900   -0.09326800
 C                 -1.26333300   -1.97778300    0.10114400
 C                 -1.71767200   -3.31174300    0.67606600
 C                  0.58214000   -0.15194800    0.54475100
 C                 -0.16270600   -1.33831900    0.89832400
 C                  0.33407400   -1.78823500    2.15772800
 C                  1.38707800   -0.92498200    2.56884700
 C                  1.55297700    0.07692800    1.57730400
 H                 -0.90592100   -2.13151000   -0.93311300
 H                 -0.86675900   -4.01362100    0.70496300
 H                 -2.51520100   -3.76236600    0.06477400
 H                 -2.09428900   -3.19943900    1.70473300
 Rh                -2.08600900    1.12604500   -1.35626200
 H                  2.28081900    0.88751100    1.59430300
 C                 -3.57547400    0.53245300    4.21889500
 C                 -3.98267000   -0.74307800    3.80459400
 C                 -3.72904800   -1.12640400    2.48528000
 C                 -3.08858400   -0.24901100    1.60042800
 C                 -2.71407400    1.02506100    2.03681000
 C                 -2.94252900    1.43036000    3.35583200
 H                 -2.24321400    1.71358000    1.32458600
 C                 -6.17366900   -2.77468300   -2.16350400
 C                 -6.43191200   -1.95395900   -1.06353800
 C                 -5.34532800   -1.37432900   -0.39433100
 C                 -4.03691800   -1.60961400   -0.82182000
 C                 -3.80857700   -2.42294600   -1.94120900
 C                 -4.87139700   -3.02278800   -2.61888100
 H                 -5.53164900   -0.73402800    0.47331500
 Fe                 1.81845700   -1.76424700    0.75289500
 C                  2.72814100   -3.58732300    0.90224400
 C                  3.69858000   -2.54517600    0.93062200
 C                  3.58548500   -1.80465500   -0.28066800
 C                  2.54683900   -2.39212400   -1.06098800
 C                  2.01828500   -3.49271100   -0.33034700
 H                  2.54481500   -4.31321300    1.69479600
 H                  4.18305000   -0.93703900   -0.55676600
 H                  2.20796800   -2.04873200   -2.03813800
 H                  1.20395300   -4.14235900   -0.65280600
 H                 -3.77014000    0.83854300    5.25292100
 H                 -7.01551900   -3.23891800   -2.68868400
 H                  1.98948300   -1.03809500    3.47005300
 H                 -0.00002900   -2.67423500    2.69480200
 H                  4.38640800   -2.33383800    1.74962200
 C                  1.19784838    0.54276688   -2.23887367
 C                  2.51828618    0.18849889   -2.42376472
 O                  0.53346688    0.57306100   -3.46575436
 C                  2.69758730   -0.01597890   -3.84602750
 H                  3.28905500    0.07859768   -1.66694231
 C                  1.47435745    0.22689604   -4.43617541
 H                  3.62470496   -0.30456810   -4.33183694
 H                  1.08829625    0.21085199   -5.45046214
 C                  0.71086434    2.60489185   -0.24267126
 C                  0.99236501    3.18062149    0.97902397
 O                  0.91082689    3.53168888   -1.26669224
 C                  1.39194171    4.54649854    0.71161076
 H                  0.93292282    2.71969972    1.96032961
 C                  1.32818656    4.71491741   -0.65627974
 H                  1.68166718    5.27883714    1.45899355
 H                  1.52224425    5.53123001   -1.34479523
 C                 -4.18912600   -2.51536423    2.00494917
 H                 -5.24614043   -2.60833104    2.14270859
 H                 -3.95316469   -2.63025029    0.96763366
 H                 -3.68773729   -3.27256778    2.57076907
 C                 -2.37390371   -2.66103747   -2.44779067
 H                 -2.14044897   -3.70312811   -2.38111238
 H                 -2.29801892   -2.34300731   -3.46661270
 H                 -1.68642518   -2.10240410   -1.84762234
 H                 -4.70181672   -3.66634276   -3.45672334
 H                 -7.43479961   -1.75344118   -0.74903991
 H                 -4.47743500   -1.40231589    4.48687913
 H                 -2.62152454    2.39325730    3.69448364
 C                 -4.05927400    3.44240400   -3.31412800
 C                 -3.27480300    2.16055900   -3.66747100
 C                 -3.68621400    3.37565400   -1.81774800
 H                 -5.14483000    3.34779100   -3.49189500
 H                 -3.66521300    4.34186000   -3.81877300
 C                 -1.90203900    2.50212300   -3.06390200
 C                 -3.85911700    1.18636300   -2.63154100
 H                 -3.27686100    1.81875000   -4.70996900
 C                 -2.15832700    3.24762300   -1.92124800
 C                 -4.11345300    1.93713100   -1.48912100
 H                 -4.06192000    4.16035200   -1.14955400
 H                 -0.94799100    2.40643000   -3.58784600
 H                 -4.23881300    0.18676400   -2.85618900
 H                 -1.44377600    3.84569500   -1.35137100
 H                 -4.74016000    1.65111100   -0.64121200