111

 P                  0.15639200    0.96603800   -0.80757700
 C                  1.19769800    0.54282800   -2.23866700
 C                  0.60265500   -0.09941300   -3.33075100
 C                  1.38124900   -0.50891100   -4.41353200
 C                  2.75448900   -0.26617000   -4.41338700
 C                  3.35029400    0.38437700   -3.33023700
 C                  2.57722900    0.78395000   -2.24339800
 C                  0.71201200    2.60828400   -0.24150200
 C                  0.44575200    3.01158800    1.07566000
 C                  0.70728000    4.31919400    1.47686800
 C                  1.23136400    5.24147000    0.56946200
 C                  1.49015700    4.84952900   -0.74308800
 C                  1.22812300    3.54127800   -1.15047800
 P                 -2.63177500   -0.71775900   -0.09326800
 C                 -1.26333300   -1.97778300    0.10114400
 C                 -1.71767200   -3.31174300    0.67606600
 C                  0.58214000   -0.15194800    0.54475100
 C                 -0.16270600   -1.33831900    0.89832400
 C                  0.33407400   -1.78823500    2.15772800
 C                  1.38707800   -0.92498200    2.56884700
 C                  1.55297700    0.07692800    1.57730400
 H                 -0.47971900   -0.27688400   -3.32207600
 H                  3.04885000    1.28380900   -1.39204200
 H                  0.03405000    2.29823200    1.79524300
 H                  1.42800400    3.24945800   -2.18545000
 H                 -0.90592100   -2.13151000   -0.93311300
 H                 -0.86675900   -4.01362100    0.70496300
 H                 -2.51520100   -3.76236600    0.06477400
 H                 -2.09428900   -3.19943900    1.70473300
 Rh                -2.08600900    1.12604500   -1.35626200
 H                  2.28081900    0.88751100    1.59430300
 Fe                 1.81845700   -1.76424700    0.75289500
 C                  2.72814100   -3.58732300    0.90224400
 C                  3.69858000   -2.54517600    0.93062200
 C                  3.58548500   -1.80465500   -0.28066800
 C                  2.54683900   -2.39212400   -1.06098800
 C                  2.01828500   -3.49271100   -0.33034700
 H                  2.54481500   -4.31321300    1.69479600
 H                  4.18305000   -0.93703900   -0.55676600
 H                  2.20796800   -2.04873200   -2.03813800
 H                  1.20395300   -4.14235900   -0.65280600
 H                  3.36619100   -0.58308300   -5.26288100
 H                  1.43876000    6.26722200    0.88707000
 H                  1.98948300   -1.03809500    3.47005300
 H                 -0.00002900   -2.67423500    2.69480200
 H                  4.38640800   -2.33383800    1.74962200
 C                 -3.08964925   -0.24791791    1.60437758
 C                 -2.95817285   -1.45010521    2.51719116
 C                 -2.20927634    0.89416152    2.07036179
 H                 -4.15905162    0.08992552    1.58413604
 C                 -3.25024359   -1.08363992    3.95800484
 H                 -1.91804273   -1.86331913    2.44137907
 H                 -3.66496901   -2.25374471    2.18367219
 C                 -2.50193486    1.26115277    3.51094252
 H                 -1.13171193    0.59820295    1.97232938
 H                 -2.37441912    1.78780245    1.41417947
 C                 -2.37195581    0.05933180    4.42427320
 H                 -3.08354795   -1.97714101    4.61401840
 H                 -4.32827955   -0.78952842    4.05657234
 H                 -1.79487387    2.06443410    3.84463361
 H                 -3.54186318    1.67516515    3.58586265
 H                 -2.65626413    0.34921577    5.46913295
 H                 -1.30229898   -0.27779958    4.44713400
 C                  0.41673152    4.74205888    2.92888965
 F                 -0.91638366    4.86264571    3.10428270
 F                  1.01269505    5.92701062    3.18031924
 F                  0.89918186    3.80721401    3.77494328
 C                  2.06870348    5.85895917   -1.75201550
 F                  3.39843524    5.66078424   -1.87465380
 F                  1.83947737    7.11504777   -1.31361296
 F                  1.47536508    5.68593610   -2.95222905
 C                  4.86655101    0.65373735   -3.33334852
 F                  5.23673046    1.15655123   -2.13641687
 F                  5.16386818    1.54163423   -4.30584100
 F                  5.52824089   -0.50084550   -3.56051575
 C                  0.72226279   -1.22106175   -5.60943270
 F                  0.38826743   -2.48017910   -5.25507329
 F                  1.58911502   -1.25958554   -6.64363922
 F                 -0.38827648   -0.54770858   -5.97794057
 C                 -4.03942322   -1.61120408   -0.82311893
 C                 -3.53456185   -2.59632985   -1.85772571
 C                 -4.81719327   -2.31442496    0.27100049
 H                 -4.69898006   -0.85267219   -1.32089749
 C                 -4.66739591   -3.42203800   -2.43256415
 H                 -2.77909724   -3.27796187   -1.38548119
 H                 -3.01791190   -2.04159997   -2.68354635
 C                 -5.95053722   -3.13948844   -0.30380921
 H                 -4.12595870   -2.98203808    0.84964924
 H                 -5.22983444   -1.55587049    0.98567796
 C                 -5.44679734   -4.12397976   -1.33940764
 H                 -4.25417925   -4.18143127   -3.14604804
 H                 -5.35766831   -2.75485958   -3.01288789
 H                 -6.46689888   -3.69458104    0.52189579
 H                 -6.70607951   -2.45717269   -0.77505355
 H                 -6.31467339   -4.67215194   -1.78984549
 H                 -4.78903350   -4.88450536   -0.84212153
 C                 -4.05927400    3.44240400   -3.31412800
 C                 -3.27480300    2.16055900   -3.66747100
 C                 -3.68621400    3.37565400   -1.81774800
 H                 -5.14483000    3.34779100   -3.49189500
 H                 -3.66521300    4.34186000   -3.81877300
 C                 -1.90203900    2.50212300   -3.06390200
 C                 -3.85911700    1.18636300   -2.63154100
 H                 -3.27686100    1.81875000   -4.70996900
 C                 -2.15832700    3.24762300   -1.92124800
 C                 -4.11345300    1.93713100   -1.48912100
 H                 -4.06192000    4.16035200   -1.14955400
 H                 -0.94799100    2.40643000   -3.58784600
 H                 -4.23881300    0.18676400   -2.85618900
 H                 -1.44377600    3.84569500   -1.35137100
 H                 -4.74016000    1.65111100   -0.64121200