  97
 
 C         -4.9321179064        0.0771659774       -0.7448055557
 C         -4.9468256866        1.4551681254       -0.4544729648
 C         -4.0535888348        2.0976609406       -1.3401981419
 C         -3.4894200089        1.1152362382       -2.1777032706
 C         -4.0497380358       -0.1288877378       -1.8218754700
 H         -5.5226344587       -0.6753318536       -0.2589533483
 H         -5.5438775760        1.9369199240        0.2945613564
 H         -3.8738159471        3.1539948893       -1.3855479294
 H         -2.8168766674        1.2880767856       -2.9972392841
 H         -3.8910703266       -1.0601512164       -2.3294804741
 Fe        -3.0679635839        0.7801037520       -0.1589945526
 C         -2.2439352823        2.1402890441        1.0620686551
 C         -1.2336726772        1.4107094491        0.3962712277
 C         -1.3432419195        0.0341836006        0.7768990191
 C         -2.4878078557       -0.0545510913        1.6249755839
 C         -3.0180641523        1.2314973865        1.8089991632
 H         -2.4277660695        3.1937661758        1.0076200266
 H         -2.8886780160       -0.9361665666        2.0821987334
 H         -3.8717517756        1.4742941537        2.4085760636
 C         -0.3063754694        1.8992817555       -0.6561210415
 H         -0.3419321096        1.1480542165       -1.4540969915
 P         -0.1058991852       -1.2405276920        0.4336416865
 C         -0.7461715776        3.2221003707       -1.2783456294
 H          0.0623079447        3.7014671267       -1.8232626410
 H         -1.5618650658        3.0165889509       -1.9661057430
 H         -1.1197423873        3.9282837991       -0.5461686324
 P          1.4481781310        1.6904431515       -0.0082020663
 Rh         1.9963196486       -0.5228955232       -0.4023996421
 C          1.4241509616        2.4886472559        1.6426514711
 C          1.2081948696        3.7617274522        4.1195394009
 C          2.0353363713        2.6675079842        3.9611299629
 C          2.1662885357        2.0241656123        2.7342918341
 C          0.6209773647        3.6168869573        1.8072687130
 C          0.5082898631        4.2490791490        3.0286336651
 H          1.1223339108        4.2409384103        5.0822018580
 H          2.6045393036        2.3013813033        4.8028261501
 H          0.1020264775        4.0225483725        0.9579196258
 H         -0.1195720388        5.1210079609        3.1285208855
 C          2.3886696529        2.8937424381       -1.0163484086
 C          3.8433053652        4.7654441000       -2.4813098956
 C          3.8479376109        4.8180449004       -1.0982075881
 C          3.1273154530        3.8864007211       -0.3754161705
 C          2.4094721902        2.8165628233       -2.4178892184
 C          3.1350905621        3.7675188092       -3.1257400116
 H          4.3964905695        5.4912253513       -3.0565675025
 H          4.4097263457        5.5809668947       -0.5823121959
 H          3.1348482846        3.9323726046        0.7035700870
 H          3.1450580202        3.7183586492       -4.2049757760
 C         -1.1119448478       -2.3451413055       -0.7363724026
 C         -2.5530477885       -2.5778616496       -0.2919052682
 H         -2.6080879042       -3.2233211265        0.5761981124
 H         -3.0590727042       -1.6385408002       -0.0834995088
 H         -3.0878540189       -3.0753697887       -1.0982253906
 C         -1.1264388600       -1.5106007820       -2.0199746893
 H         -1.6691250883       -0.5834140753       -1.8359071513
 H         -0.1137377054       -1.2678563761       -2.3432197416
 H         -1.6188494051       -2.0505862481       -2.8249395911
 C         -0.4444404248       -3.6960298114       -0.9815579496
 H          0.5570295797       -3.5870738644       -1.3814891757
 H         -0.3907376333       -4.2837280711       -0.0690269843
 H         -1.0317408594       -4.2622990730       -1.7027406831
 C          0.1119282328       -2.0144536748        2.1736803695
 C         -0.9298531894       -3.0419599032        2.6085981233
 H         -1.9325627111       -2.6309392000        2.6338158725
 H         -0.9226256916       -3.9221509135        1.9719101135
 H         -0.6870247828       -3.3678593182        3.6196478448
 C          1.4790896886       -2.7020749243        2.2057571800
 H          1.4726186643       -3.6021875200        1.5956276152
 H          2.2666898117       -2.0324126610        1.8536296034
 H          1.7198775882       -2.9994024800        3.2250364927
 C          0.1195295274       -0.8532604262        3.1742883533
 H          0.6536172446        0.0070773285        2.7774439464
 H         -0.8883871299       -0.5337329750        3.4207218974
 H          0.6046932504       -1.1636548846        4.0974736218
 C          3.1425787550        0.8966972103        2.6232429187
 H          2.8318431068        0.1890817000        1.8481805517
 H          4.1248131876        1.2948613697        2.3644782105
 H          3.2353663916        0.3700486485        3.5701251922
 C          1.6900264407        1.7490031077       -3.1882996615
 H          1.5619306780        0.8414466769       -2.5894059509
 H          0.7080864961        2.0980598920       -3.5045429584
 H          2.2511611392        1.4987814558       -4.0865332257
 C          4.9109519887       -2.0778975019       -1.9582700692
 C          3.7755992141       -1.1922351743       -2.5016260716
 C          4.3617639229       -2.0559554146       -0.5207297532
 H          5.8943067207       -1.6182814074       -2.0503817843
 H          4.9266524953       -3.0752686909       -2.3966862619
 C          2.5631068845       -1.9578594155       -1.9892918496
 C          3.8456996800       -0.0220946764       -1.5249479002
 H          3.7855995717       -0.9466880831       -3.5592106452
 C          2.9185636547       -2.4904147396       -0.7697319463
 C          4.2137048383       -0.5540729694       -0.3128424421
 H          4.9085325977       -2.6026770297        0.2417829280
 H          1.7752740027       -2.2873783179       -2.6505090046
 H          3.9755700572        1.0025942407       -1.8344718661
 H          2.4871969031       -3.3536799654       -0.2913310554
 H          4.6699454080       -0.0237979538        0.5087595319
