83
{'complex_bidentate_1_index': 0, 'complex_bidentate_2_index': 13, 'free_ligand_bidentate_1_index': 0, 'free_ligand_bidentate_2_index': 13}
P            0.19631   0.89394  -0.78002
C            1.10303   0.37817  -2.27172
C            0.40810  -0.30721  -3.27478
C            1.08424  -0.78013  -4.39973
C            2.45379  -0.55455  -4.53368
C            3.14849   0.14239  -3.54215
C            2.47855   0.60234  -2.41177
C            0.82389   2.55133  -0.35144
C            0.61919   3.04730   0.94534
C            0.93407   4.36852   1.25161
C            1.44552   5.21549   0.26667
C            1.63554   4.73463  -1.02740
C            1.32289   3.41109  -1.33868
P           -2.54525  -0.87266   0.05860
C           -1.09347  -2.04865   0.18456
C           -1.38577  -3.46212   0.67893
C            0.70602  -0.17571   0.58340
C            0.00654  -1.38031   0.96086
C            0.54567  -1.80771   2.21202
C            1.57001  -0.89886   2.60152
C            1.68143   0.10095   1.59902
H           -0.67184  -0.46272  -3.16541
H            3.02773   1.13804  -1.63212
H            0.20470   2.39837   1.72151
H            1.47041   3.05199  -2.36072
H           -0.76696  -2.11891  -0.86909
H           -0.44197  -4.03085   0.72027
H           -2.06444  -3.99559  -0.00220
H           -1.83165  -3.47721   1.68346
H            2.38185   0.93527   1.59486
Fe           2.00619  -1.73960   0.79004
C            3.06117  -3.48044   0.99310
C            3.94787  -2.36901   0.91504
C            3.72225  -1.71213  -0.32774
C            2.69698  -2.41998  -1.02143
C            2.29200  -3.51282  -0.20621
H            2.97135  -4.17051   1.83242
H            4.23926  -0.82048  -0.67877
H            2.28748  -2.16362  -1.99824
H            1.52276  -4.24404  -0.45524
H            2.98477  -0.92009  -5.41726
H            1.69324   6.25274   0.50910
H            2.19240  -0.98246   3.49232
H            0.26041  -2.70670   2.75675
H            4.65341  -2.05791   1.68575
H            0.77686   4.74052   2.26806
H            2.03142   5.39301  -1.80584
H            4.22215   0.32143  -3.64960
H            0.53799  -1.32023  -5.17816
C           -3.08986  -0.34164   1.75326
C           -3.05090  -1.38812   2.87143
C           -2.34237   0.92651   2.19144
H           -4.14930  -0.05997   1.57957
C           -3.63587  -0.82178   4.16461
H           -1.99979  -1.67385   3.05095
H           -3.59234  -2.30329   2.58499
C           -2.91538   1.49069   3.48763
H           -1.27567   0.67590   2.33906
H           -2.38350   1.68366   1.38399
C           -2.91162   0.44751   4.59999
H           -3.58522  -1.58703   4.95853
H           -4.70997  -0.60103   4.01192
H           -2.33998   2.38313   3.79096
H           -3.95243   1.83364   3.30661
H           -3.37269   0.85856   5.51454
H           -1.86492   0.19758   4.85999
C           -3.96407  -1.78679  -0.70664
C           -3.52937  -2.41220  -2.03833
C           -4.77020  -2.76900   0.14895
H           -4.65539  -0.95468  -0.94714
C           -4.72848  -2.95684  -2.80991
H           -2.82257  -3.24003  -1.84632
H           -2.97868  -1.66826  -2.64448
C           -5.96019  -3.31224  -0.64287
H           -4.13543  -3.60892   0.47829
H           -5.13626  -2.26855   1.06080
C           -5.52810  -3.94179  -1.96301
H           -4.38690  -3.43513  -3.74422
H           -5.38299  -2.11482  -3.10942
H           -6.51021  -4.04436  -0.02684
H           -6.66608  -2.48409  -0.84715
H           -6.40937  -4.29964  -2.52236
H           -4.90572  -4.83418  -1.75764
