95
{'complex_bidentate_1_index': 21, 'complex_bidentate_2_index': 26, 'free_ligand_bidentate_1_index': 21, 'free_ligand_bidentate_2_index': 26}
C           -4.08025  -0.12936  -1.75438
C           -5.00973  -0.38056  -0.70615
C           -5.35687   0.87233  -0.12728
C           -4.63760   1.89189  -0.81454
C           -3.84450   1.26959  -1.82063
H           -3.63454  -0.87495  -2.40597
H           -5.38850  -1.35515  -0.39932
H           -6.03421   1.02483   0.71325
H           -4.67706   2.95857  -0.59132
H           -3.18032   1.77089  -2.52530
Fe          -3.34567   0.56869   0.05545
C           -2.41281   1.81210   1.36301
C           -1.44987   1.17144   0.52304
C           -1.53740  -0.25397   0.76993
C           -2.64194  -0.45326   1.66553
C           -3.14654   0.81265   2.06202
H           -2.61322   2.88142   1.40775
H           -3.00640  -1.42194   2.00130
H           -3.98327   0.98981   2.73777
C           -0.60412   1.86420  -0.51623
H           -0.70357   1.27784  -1.44694
P           -0.11751  -1.38906   0.65312
C           -1.10741   3.27766  -0.79737
H           -0.65432   3.68420  -1.70601
H           -2.19709   3.25508  -0.95150
H           -0.89708   3.98370   0.01722
P            1.21772   1.69856  -0.14667
C            1.38468   2.31509   1.61822
C            2.80045   2.19788   2.18954
C            3.68056   3.38595   1.81681
C            3.04994   4.70580   2.26246
C            1.60753   4.86815   1.78132
C            0.76920   3.63658   2.09273
H            2.70123   2.16444   3.29142
H            4.67583   3.27279   2.28070
H            3.66444   5.55801   1.92435
H            1.15321   5.75248   2.26060
H           -0.26414   3.75351   1.73843
H            1.58156   5.06962   0.69635
H            0.68846   3.53852   3.19286
H            0.77585   1.51551   2.07464
H            3.26076   1.24096   1.89666
H            3.85183   3.39791   0.72439
H            3.05847   4.73948   3.36844
C            2.22508   2.52097  -1.50800
C            1.85187   1.89465  -2.87147
C            0.85674   2.69380  -3.70829
C            1.29506   4.14641  -3.87324
C            1.55419   4.82829  -2.53245
C            2.51660   4.02356  -1.66727
H            2.78838   1.82438  -3.45734
H            0.76882   2.21365  -4.69827
H            0.54442   4.71015  -4.45344
H            1.99005   5.82812  -2.70089
H            2.65389   4.50599  -0.69019
H            0.60708   5.00829  -1.99807
H            3.50885   4.06885  -2.15627
H            3.19697   2.08440  -1.22719
H            1.49417   0.85581  -2.73804
H           -0.15265   2.64427  -3.26552
H            2.22696   4.16828  -4.47030
C           -0.41931  -2.96820  -0.29973
C           -1.71061  -3.76602  -0.07656
C           -2.88967  -3.26062  -0.89497
C           -2.53753  -3.17892  -2.37603
C           -1.32399  -2.27939  -2.58638
C           -0.12940  -2.79541  -1.79901
H           -1.49271  -4.80975  -0.37466
H           -3.75827  -3.92348  -0.73690
H           -3.40219  -2.82633  -2.96516
H           -1.06241  -2.21706  -3.65706
H            0.73835  -2.12372  -1.93966
H           -1.55621  -1.25014  -2.25145
H            0.16074  -3.78545  -2.20129
H            0.40193  -3.57100   0.12799
H           -1.97297  -3.81017   0.99189
H           -3.17411  -2.25909  -0.53275
H           -2.30749  -4.19165  -2.75913
C            0.26024  -2.01586   2.39387
C            1.10427  -1.00649   3.18937
C            0.28168  -0.07353   4.06800
C           -0.50683  -0.88428   5.08704
C           -1.46811  -1.81911   4.36628
C           -0.78217  -2.69408   3.31256
H            1.78136  -1.58058   3.85167
H            0.95231   0.64583   4.57023
H           -1.06675  -0.22222   5.76956
H           -1.97463  -2.48442   5.08706
H           -1.53998  -3.23886   2.72787
H           -2.25773  -1.20332   3.91118
H           -0.22199  -3.47783   3.85660
H            0.94556  -2.82538   2.08299
H            1.75810  -0.44121   2.49937
H           -0.42342   0.51673   3.45131
H            0.19706  -1.46314   5.71518
