95
{'complex_bidentate_1_index': 21, 'complex_bidentate_2_index': 26, 'free_ligand_bidentate_1_index': 21, 'free_ligand_bidentate_2_index': 26}
C           -3.54345  -0.93953  -1.28774
C           -4.23965  -1.48506  -0.16959
C           -5.10039  -0.47659   0.34904
C           -4.93601   0.69379  -0.44518
C           -3.97821   0.40337  -1.45926
H           -2.80130  -1.45505  -1.89686
H           -4.12876  -2.49256   0.22795
H           -5.74831  -0.57277   1.22054
H           -5.43852   1.64894  -0.29063
H           -3.63537   1.08997  -2.23312
Fe          -3.15657   0.15440   0.41119
C           -2.37736   1.85592   1.21936
C           -1.35752   1.12824   0.53076
C           -1.27684  -0.16986   1.14631
C           -2.25154  -0.22569   2.19646
C           -2.91854   1.02710   2.24252
H           -2.72289   2.86057   0.98037
H           -2.43960  -1.08413   2.83986
H           -3.73565   1.29312   2.91294
C           -0.52891   1.61988  -0.62486
H           -0.50735   0.80856  -1.37439
P            0.04574  -1.34202   0.79818
C           -1.19896   2.82931  -1.27656
H           -0.78468   3.05496  -2.26767
H           -2.26646   2.59610  -1.41550
H           -1.13584   3.73852  -0.66229
P            1.31839   1.72063  -0.16333
C            2.12783   2.62838  -1.63137
C            1.46328   2.74054   1.43633
C            0.51593   3.93963   1.49317
H           -0.53818   3.62637   1.49215
H            0.69281   4.48385   2.43925
H            0.67856   4.65212   0.67026
C            2.90117   3.23105   1.62414
H            2.98841   3.67201   2.63354
H            3.63286   2.40915   1.56137
H            3.18003   4.01591   0.90463
C            1.14292   1.79387   2.60117
H            1.29384   2.33455   3.55387
H            0.10070   1.44207   2.57695
H            1.81283   0.91292   2.59556
C            1.70033   1.84450  -2.88168
H            0.63175   1.95308  -3.12159
H            2.27049   2.21178  -3.75400
H            1.91603   0.76586  -2.76884
C            3.65854   2.55876  -1.55812
H            4.07222   3.05591  -0.67061
H            4.03838   1.53233  -1.58926
H            4.06591   3.08245  -2.44178
C            1.76965   4.11394  -1.75964
H            2.18428   4.49166  -2.71231
H            0.69413   4.32455  -1.76535
H            2.22956   4.70822  -0.95385
C           -0.51631  -2.42262  -0.55076
C           -1.52522  -3.37297  -0.36163
C            0.00823  -2.22257  -1.82942
C           -2.01044  -4.12563  -1.42949
H           -1.95502  -3.52272   0.63306
C           -0.45838  -2.94880  -2.92914
H            0.79822  -1.47446  -1.97037
C           -1.46382  -3.90485  -2.70867
C            0.14469  -2.37855   2.29311
C            0.35670  -3.75781   2.21956
C            0.21963  -1.74728   3.54334
C            0.61466  -4.51869   3.36499
H            0.33102  -4.26903   1.25318
C            0.47211  -2.47082   4.70718
H            0.08939  -0.66421   3.61932
C            0.65872  -3.86208   4.60415
O           -1.98372  -4.59792  -3.75510
O            0.95622  -4.55859   5.73290
C            0.86202  -5.99562   3.27272
H            1.58352  -6.31933   4.03988
H           -0.06702  -6.57415   3.42931
H            1.25313  -6.26925   2.27942
C           -0.12584  -5.20342   6.36848
H           -0.57583  -5.97978   5.72242
H            0.27597  -5.68025   7.27476
H           -0.91225  -4.48115   6.65752
C            0.57344  -1.80013   6.04485
H           -0.25940  -2.09214   6.70902
H            1.50435  -2.08966   6.56027
H            0.55065  -0.70376   5.94032
C           -3.12617  -5.11251  -1.25728
H           -3.98530  -4.84478  -1.89607
H           -2.82094  -6.13225  -1.54905
H           -3.46495  -5.14751  -0.20960
C           -1.26985  -5.74569  -4.15988
H           -1.84588  -6.20659  -4.97581
H           -0.26025  -5.49049  -4.53146
H           -1.17122  -6.47145  -3.33089
C            0.07873  -2.70143  -4.30830
H            0.90722  -3.39121  -4.55348
H           -0.70695  -2.84929  -5.06646
H            0.47012  -1.67498  -4.39988
