95
{'complex_bidentate_1_index': 0, 'complex_bidentate_2_index': 1, 'free_ligand_bidentate_1_index': 0, 'free_ligand_bidentate_2_index': 1}
P            0.17591   0.81686  -0.71818
P           -2.65010  -0.73667  -0.26541
C           -1.48799  -2.18697  -0.09644
C           -2.10451  -3.47411   0.43926
C            0.53798  -0.56916   0.39566
C           -0.26719  -1.73817   0.65721
C            0.31311  -2.41115   1.77434
C            1.47109  -1.69599   2.18894
C            1.62477  -0.57459   1.33545
H           -1.19638  -2.36668  -1.14692
H           -1.35217  -4.28077   0.41297
H           -2.96054  -3.78832  -0.17697
H           -2.46168  -3.37578   1.47626
H            2.41738   0.17060   1.39023
C           -3.09329   1.43291   3.76232
C           -2.75732   0.07294   3.79013
C           -2.63788  -0.60867   2.57589
C           -2.83454   0.05800   1.36158
C           -3.16132   1.41827   1.36621
C           -3.30340   2.12281   2.56563
H           -2.37227  -1.66687   2.59122
H           -3.26954   1.94559   0.41130
C           -6.71058  -2.55411  -1.40400
C           -6.63643  -1.77593  -0.24699
C           -5.39453  -1.23560   0.11579
C           -4.26502  -1.46591  -0.66996
C           -4.36979  -2.24426  -1.83194
C           -5.59074  -2.80389  -2.20960
H           -5.31255  -0.63427   1.02635
H           -3.48255  -2.43347  -2.44812
Fe           1.64873  -2.28144   0.23739
C            2.67742  -4.04634   0.18359
C            3.56135  -2.95464  -0.05393
C            3.10471  -2.25926  -1.20762
C            1.93887  -2.92500  -1.68919
C            1.67655  -4.02932  -0.83091
H            2.73997  -4.75323   1.01127
H            3.55552  -1.36376  -1.63374
H            1.34940  -2.62862  -2.55641
H            0.84505  -4.72940  -0.92021
H           -3.18724   1.97435   4.71011
H           -7.67511  -2.98731  -1.69072
C           -2.55761  -0.64472   5.09429
H           -3.52024  -1.01757   5.49011
H           -1.88931  -1.51357   4.97790
H           -2.12674   0.02094   5.86019
C           -3.61237   3.59150   2.54772
H           -4.43068   3.82224   1.84458
H           -3.90500   3.95720   3.54493
H           -2.72531   4.16702   2.22412
C           -7.85944  -1.50217   0.58052
H           -7.60192  -1.33738   1.63954
H           -8.37962  -0.59435   0.22290
H           -8.57952  -2.33475   0.52545
C           -5.71225  -3.65328  -3.44224
H           -6.45081  -3.23090  -4.14605
H           -4.74977  -3.74091  -3.97183
H           -6.05269  -4.67305  -3.19025
H            2.14939  -1.98849   2.99031
H           -0.03875  -3.34712   2.20583
H            4.41621  -2.67822   0.56366
C            0.32087   2.27635   0.38759
C            0.03960   2.08347   1.72975
C            0.56740   3.60500  -0.09957
C            0.02001   3.15907   2.64150
H           -0.17899   1.08188   2.10603
C            0.55067   4.68949   0.83811
C            0.82845   3.91936  -1.46020
C            0.27655   4.43528   2.20621
H           -0.20194   2.96068   3.69336
C            0.80267   6.01090   0.38637
C            1.06353   5.21280  -1.86956
H            0.84894   3.12179  -2.20286
H            0.27100   5.27618   2.90624
C            1.05564   6.27377  -0.93893
H            0.79039   6.82259   1.11996
H            1.26024   5.41665  -2.92596
H            1.24946   7.29675  -1.27289
C            1.63465   0.82556  -1.82638
C            2.80709   1.41217  -1.38730
C            1.58992   0.17882  -3.10203
C            3.97332   1.39495  -2.17954
H            2.83343   1.91473  -0.41607
C            2.77860   0.16859  -3.90229
C            0.43924  -0.47566  -3.61836
C            3.95665   0.78808  -3.41367
H            4.88477   1.87035  -1.80739
C            2.76245  -0.47466  -5.16803
C            0.45217  -1.08608  -4.85095
H           -0.48565  -0.48442  -3.02002
H            4.85600   0.77199  -4.03641
C            1.62620  -1.08845  -5.63814
H            3.67919  -0.47416  -5.76504
H           -0.45181  -1.57810  -5.22222
H            1.62865  -1.58043  -6.61463
