71
{'complex_bidentate_1_index': 0, 'complex_bidentate_2_index': 1, 'free_ligand_bidentate_1_index': 0, 'free_ligand_bidentate_2_index': 1}
P            0.14549   0.80908  -0.58508
P           -2.66048  -0.75927  -0.06148
C           -1.40290  -2.15235   0.07016
C           -1.88512  -3.54302   0.46707
C            0.59748  -0.50918   0.54801
C           -0.17652  -1.69996   0.81131
C            0.50095  -2.41503   1.84273
C            1.67543  -1.69641   2.20717
C            1.74466  -0.52405   1.41158
H           -1.11681  -2.21072  -0.99278
H           -1.15752  -4.29089   0.10887
H           -2.86405  -3.77715   0.02054
H           -1.97809  -3.66951   1.55225
H            2.53196   0.22920   1.43367
C           -3.47984   1.78766   3.71543
C           -3.48166   0.40142   3.85074
C           -3.22932  -0.45148   2.76980
C           -2.95094   0.13052   1.51296
C           -2.95205   1.52998   1.38954
C           -3.21950   2.35878   2.47390
H           -2.72499   1.97260   0.41308
C           -6.73583  -2.56589  -1.29410
C           -6.63201  -1.78406  -0.14685
C           -5.39199  -1.27221   0.22514
C           -4.24362  -1.53711  -0.53451
C           -4.34409  -2.31408  -1.71372
C           -5.60260  -2.81716  -2.06386
H           -5.31642  -0.64989   1.12093
Fe           1.71403  -2.15380   0.20843
C            2.67420  -3.92105  -0.18013
C            3.58707  -2.83116  -0.26367
C            3.11455  -1.93286  -1.26210
C            1.90813  -2.47207  -1.80213
C            1.63879  -3.70011  -1.13429
H            2.74343  -4.76392   0.50779
H            3.58322  -0.99012  -1.54641
H            1.29417  -2.00932  -2.57527
H            0.78266  -4.35205  -1.31094
H           -3.68960   2.41914   4.58368
H           -7.70303  -2.97521  -1.59906
H            2.41379  -2.01522   2.94271
H            0.20490  -3.38180   2.24731
H            4.47405  -2.69139   0.35464
C            1.59045   1.17007  -1.60069
C            2.69358   1.95667  -1.39788
O            1.66813   0.58189  -2.82327
C            3.49966   1.82582  -2.56842
H            2.89755   2.55961  -0.51392
C            2.82264   0.97629  -3.39477
H            4.45540   2.30673  -2.77241
H            3.02550   0.57739  -4.38703
C            0.15178   2.22954   0.53126
C            0.25851   2.33798   1.89240
O           -0.08602   3.45440  -0.00731
C            0.08498   3.72175   2.19741
H            0.42126   1.52027   2.59131
C           -0.11824   4.34689   1.00226
H            0.11201   4.18920   3.18062
H           -0.28038   5.38451   0.71601
C           -3.26144  -1.93091   3.00254
H           -3.81641  -2.16919   3.92357
H           -3.73950  -2.47121   2.17021
H           -2.23696  -2.32441   3.12505
C           -3.17137  -2.61844  -2.60628
H           -2.60144  -3.49441  -2.24832
H           -3.51291  -2.85451  -3.62707
H           -2.46744  -1.76606  -2.67420
H           -5.69318  -3.41957  -2.97331
H           -7.51491  -1.56767   0.46078
H           -3.69741  -0.04239   4.82747
H           -3.21338   3.44407   2.34584
