69
{'complex_bidentate_1_index': 21, 'complex_bidentate_2_index': 26, 'free_ligand_bidentate_1_index': 21, 'free_ligand_bidentate_2_index': 26}
C           -3.53713  -0.78243  -1.25602
C           -4.05978  -1.48569  -0.13138
C           -5.00411  -0.64024   0.51627
C           -5.06399   0.58711  -0.20359
C           -4.16088   0.49613  -1.30119
H           -2.79051  -1.15769  -1.95546
H           -3.76920  -2.48533   0.18930
H           -5.55820  -0.87640   1.42505
H           -5.67534   1.45224   0.05393
H           -3.97827   1.27319  -2.04352
Fe          -3.16166   0.24705   0.47784
C           -2.36812   1.99798   1.18158
C           -1.35939   1.23460   0.51841
C           -1.28650  -0.03421   1.19118
C           -2.24134  -0.03393   2.26251
C           -2.89757   1.22551   2.25351
H           -2.71142   2.99138   0.89684
H           -2.44074  -0.86279   2.93932
H           -3.70366   1.52941   2.92115
C           -0.52054   1.66276  -0.65482
H           -0.50551   0.82441  -1.37305
P           -0.00583  -1.22911   0.80732
C           -1.17075   2.85475  -1.35583
H           -0.73659   3.04909  -2.34479
H           -2.23636   2.61841  -1.50933
H           -1.11670   3.78216  -0.76771
P            1.32948   1.74173  -0.18699
C            2.16244   2.57665  -1.68081
C            1.49189   2.79853   1.38530
C            0.57088   4.01926   1.39874
H           -0.49009   3.72972   1.39935
H            0.75321   4.58965   2.32816
H            0.75500   4.70097   0.55441
C            2.94025   3.26296   1.55935
H            3.03675   3.73521   2.55358
H            3.65311   2.42283   1.52520
H            3.23748   4.01661   0.81428
C            1.15103   1.89562   2.58019
H            1.31507   2.46473   3.51372
H            0.10220   1.56356   2.57195
H            1.80284   1.00133   2.60378
C            1.71517   1.75703  -2.90146
H            0.65642   1.90637  -3.16153
H            2.31334   2.05900  -3.78000
H            1.87395   0.67504  -2.73749
C            3.69020   2.46594  -1.59942
H            4.11631   2.97533  -0.72468
H            4.03847   1.42750  -1.60131
H            4.11508   2.95207  -2.49613
C            1.84094   4.06482  -1.85946
H            2.25716   4.39852  -2.82770
H            0.77034   4.30047  -1.86511
H            2.32063   4.67578  -1.07797
C           -0.53919  -2.24927  -0.57932
C           -1.18542  -3.44892  -0.71562
O           -0.22551  -1.75806  -1.80879
C           -1.27785  -3.69649  -2.11807
H           -1.54140  -4.08286   0.09362
C           -0.67980  -2.63198  -2.72753
H           -1.72908  -4.55792  -2.60860
H           -0.50240  -2.36668  -3.76808
C           -0.04236  -2.35770   2.21678
C           -0.06156  -2.10581   3.56497
O            0.18676  -3.67753   2.00554
C            0.14876  -3.36215   4.20996
H           -0.19830  -1.13472   4.03904
C            0.29203  -4.27714   3.20894
H            0.18281  -3.55742   5.28083
H            0.45861  -5.35248   3.19139
